64
 energy: -95.150555009855 gnorm: 0.000573681200 xtb: 6.4.1 (23d549d)
C         6.68670908871880    0.97005026174579    0.24636918844148
C         6.73221816508028   -0.45619657211268    0.78902074999021
C        -5.91077727601504    2.47977723973914    1.57218376488386
C        -6.51096885939011    1.08880161580542    1.75477610920452
C         5.63747128723604    1.10044910894145   -0.85404524764509
C         5.35857622979408   -0.89500814349589    1.28763342943580
C        -4.93135141349291    2.49269729200938    0.39257457092646
C        -5.42280503998744    0.08920109209590    2.16266668257392
C        -0.32106454999619    1.11994527949851   -1.39323353171360
C         0.21811740185183   -1.52400546893264    0.97907522749207
C         1.13100177867036    0.75653796776947   -3.27859852453432
C         0.56300489763966   -3.76913691844564    0.18475609964004
C        -1.26939462112844    0.62961405331223   -3.54900107668212
C        -1.64956491421160   -3.03559510252499    0.82751379895680
C         2.10257022636743    1.11106620176097   -1.01865825867959
C         2.46077095412717   -2.18686818620474    0.17699179762151
C        -2.76971134255968    0.86193944662798   -1.59630366334021
C        -2.02856846674665   -0.67512693279884    1.49577051609989
C         0.96254086905139    1.02324379942025   -1.91835823761197
C         1.07207623068508   -2.50560711645989    0.48174269065546
C        -1.44029750552856    0.89821193861908   -2.19174397689238
C        -1.14280243819865   -1.76869225507427    1.12430582378589
C         0.01253728664434    0.58524560580170   -4.06914773252732
C        -0.78392567650691   -4.01537604587714    0.38545117476600
C         4.26877974371308    0.68116094420299   -0.32641882760592
C         4.33131626463909   -0.78915642835474    0.15820029523983
C        -4.27028547835126    1.12120160257601    0.17854370894693
C        -4.06053692744351    0.44499460318737    1.55661693837040
Br        0.23824271547677    0.23610109053663   -5.93905335055577
Br       -1.47173442533319   -5.76060810172685   -0.00198749450316
N         3.26657582372635    0.74758338750069   -1.34885257639932
N         3.02098298334350   -1.14278832234042    0.61201121732302
N        -2.98607392059322    1.28807707173230   -0.42812019900498
N        -3.28164111008832   -0.73946224201030    1.34820725790542
H         6.44419817740204    1.65898903656846    1.05881214975476
H         7.66602901513575    1.24713969809208   -0.14763541859912
H         7.06146509736564   -1.13454482977669   -0.00143291004674
H         7.45186791114791   -0.51897648184354    1.60729418681985
H        -6.70102609386220    3.21057249518632    1.39411298210828
H        -5.39757497012525    2.76569289182851    2.49150209826272
H        -7.28874254806837    1.11256280158225    2.51913136343205
H        -6.97860758865011    0.77793863841951    0.81906688515917
H         5.89525884659627    0.46755857103775   -1.70481042993441
H         5.58251251025141    2.13232159183224   -1.20653004569430
H         5.39392073162477   -1.92889911029189    1.63872164980832
H         5.03460342951192   -0.26669888765874    2.11908240187283
H        -5.44879457498063    2.76683416429608   -0.52885028531525
H        -4.14313171653277    3.22841122596741    0.56224086384676
H        -5.68815675475069   -0.91583099580612    1.83163150104582
H        -5.32068686020941    0.06574952458659    3.24896674140624
H        -0.47801762435345    1.33096146328000   -0.34806250407428
H         0.63516792986202   -0.55689630186956    1.20784158395750
H         2.12858895387914    0.68232277811233   -3.68018672522137
H         1.21035766155176   -4.54501319960763   -0.19538160220724
H        -2.12419051756654    0.45985480940065   -4.18620993187662
H        -2.70554346266636   -3.21946157056443    0.94189739226206
H         1.87022126678719    1.45529707553904   -0.00123723871142
H         2.97288714044995   -2.88779641518776   -0.49891965180511
H        -3.55856210267836    0.40354441163237   -2.21044897025646
H        -1.53016780727283    0.23539249562058    1.85553767835821
H         3.98927382713792    1.29822858127001    0.54509166525968
H         4.64899562929791   -1.42559489329966   -0.68644625986496
H        -4.91758546155754    0.46944288619756   -0.43103624558765
H        -3.51654502592440    1.16862677893047    2.18536773127612
