22
 energy: -25.837467928082 gnorm: 0.000488183708 xtb: 6.4.1 (23d549d)
C         1.88128329214041    0.44173479670590   -0.31364251992277
C         1.60799311465800   -1.05722933516279   -0.36571738656354
C         0.64569367365332    1.21986562973339   -0.75156985818399
C         0.40353883082528   -1.40559132676010    0.50143673901161
C        -0.56411268523446    0.87987756721582    0.11968669060695
C        -0.84092873390416   -0.63205508543064    0.06396685286892
N        -1.72827408547308    1.60998264527749   -0.38167011628637
N        -1.94394718771455   -0.96161811242740    0.96644195985714
H         2.14549255636463    0.72700919547229    0.70730735735436
H         2.72293757317788    0.69229790667012   -0.96238336472008
H         2.48320933735103   -1.61018573127738   -0.01872913814343
H         1.40881874865626   -1.35393623008714   -1.39811939560474
H         0.39946416558954    0.98159835583786   -1.78829643738733
H         0.84012978571060    2.29362835585080   -0.69237597615843
H         0.60955771594262   -1.16141238293207    1.54551090344154
H         0.19869799004018   -2.47746805776507    0.44278081623186
H        -0.33627016535495    1.13531421981788    1.17000028627834
H        -1.07449849310041   -0.88658680536452   -0.98533458476209
H        -2.49337843921681    1.52844804046701    0.28026059269397
H        -1.50285857072156    2.59766338781351   -0.45218237130330
H        -2.05029614158546   -1.97035231520410    1.01551780697172
H        -2.81225128180425   -0.59098571845084    0.59383014371964
