142
-211.12898078
 C          5.1583771952       -2.3106552665       -5.1893038569
 C          4.5254880058       -3.6813473985       -5.4064312331
 C         -2.1741521921        5.6960201909        4.1520074336
 C         -1.0342065176        6.7095834654        4.1594228784
 C         -7.0364563814       -0.2073195169       -0.9312414746
 C         -6.4826391090        1.2026675780       -0.7534168354
 C          7.1862190928       -3.2185789698        3.4527038580
 C          6.1015896686       -4.2851463537        3.3412512815
 C          4.0886997132       -1.2782704282       -4.8543617275
 C          3.7411533251       -4.1056206560       -4.1700709828
 C         -2.2615946913        5.0020282657        2.7973172924
 C          0.2873258634        6.0285830194        3.8219061025
 C         -5.9090124821       -1.1900120025       -1.2257385584
 C         -5.4387634519        1.2323389508        0.3576216756
 C          6.8889081733       -2.0593196093        2.5085888546
 C          4.7339881541       -3.6858381882        3.6456430777
 C          0.8559266385        1.2660924073       -0.7214581544
 C         -1.2136699135       -3.1111691945       -1.0314955618
 C          3.3713050569        2.6515683250        1.5998104883
 C          0.0449852410       -0.8720756735        1.6131580003
 C          0.1102534498        1.0809885203       -3.0027007485
 C          0.7423222705       -4.2298583836       -0.1811200070
 C         -1.0545223022        2.5331934687       -1.4593202619
 C         -1.1974568859       -3.9388901525        1.2302196898
 C          3.3395602557        3.4989376852       -0.6547436220
 C         -1.4245773235        0.1102566745        3.2487846330
 C          4.6832551771        1.5676973303       -0.1046696496
 C          0.7541522115       -0.7061690846        3.9074866960
 C          2.0889679855       -0.2146895392       -2.2586399817
 C          0.7694676939       -3.3008258990       -2.4799643575
 C         -0.2854742659        2.7291326143        0.8907684459
 C         -3.1443389674       -2.6473894905        0.4434769408
 C          1.8581027654        4.5238175999        1.0266387157
 C         -2.1614171760       -0.0681701643        0.8871798171
 C          4.6540465482        0.6316500302        2.1901728674
 C          2.2698078981       -1.7323084410        2.2354488758
 C          1.0070331244        0.7238140904       -1.9941555940
 C          0.0850336167       -3.5684217974       -1.2219192742
 C         -0.1686305694        2.1682198732       -0.4463589147
 C         -1.8544784088       -3.2739664523        0.1958662348
 C          2.8981952062        3.5721911177        0.6657661335
 C         -1.1695950458       -0.2699072984        1.9317352477
 C          4.2466389758        1.6404024020        1.2208500831
 C          1.0079289945       -1.0983895998        2.5919213386
 C         -0.9032686200        1.9750283457       -2.7152938203
 C          0.0853771214       -4.4124190435        1.0187316788
 C          4.2311451056        2.5032660589       -1.0128065360
 C         -0.4543193208       -0.1081529620        4.2093737565
 C          3.3046422805       -1.6878342489       -3.6058935869
 C          2.6609289802       -3.0806729636       -3.8270381314
 C         -0.9485422692        4.3047351560        2.4565018224
 C          0.2192872026        5.3454755495        2.4584010082
 C         -4.8649383979       -1.1827823463       -0.1120275581
 C         -4.2983689939        0.2656891898        0.0563108698
 C          5.5218135540       -1.4449591802        2.8067427921
 C          4.4188637720       -2.5288223526        2.6953581324
 Br        -2.1423640288        2.4470885488       -4.0903296318
 Br         0.9834678088       -5.3116669200        2.4452064145
 Br         4.8222448559        2.4027165185       -2.8268856731
 Br        -0.7932012333        0.4449660028        6.0065701694
 N          2.2488035844       -0.7508675678       -3.3889361805
 N          2.0164331186       -3.4550637681       -2.6047194360
 N         -1.0099539688        3.7332349328        1.1490955734
 N         -3.7513132159       -1.9988845464       -0.4582285369
 N          1.4060008804        4.6005962336        2.2063415171
 N         -3.3636375949        0.2370682276        1.1354768741
 N          5.2300162108       -0.4345912575        1.8356318426
 N          3.1820049852       -1.9297507241        3.0836426118
 H          5.8787720853       -2.3662233553       -4.3702649610
 H          5.6932316809       -1.9975494292       -6.0872520597
 H          5.2985736221       -4.4219651284       -5.6179843611
 H          3.8536068844       -3.6398794142       -6.2666123356
 H         -2.0027965647        4.9498910606        4.9311930519
 H         -3.1199700314        6.1961134927        4.3662506905
 H         -1.2372930597        7.4921724961        3.4247394720
 H         -0.9590051470        7.1800171585        5.1410894357
 H         -7.5537384874       -0.5127541216       -0.0186730310
 H         -7.7541707577       -0.2242496159       -1.7523511720
 H         -7.2925477459        1.8924526902       -0.5115734652
 H         -6.0267992390        1.5339067493       -1.6889959046
 H          8.1596100635       -3.6465458059        3.2071474069
 H          7.2294188126       -2.8492293802        4.4797264606
 H          6.3021587180       -5.0990671657        4.0396205952
 H          6.0997883999       -4.7006163893        2.3311499885
 H          4.5417238994       -0.3010309781       -4.6771153417
 H          3.3863260868       -1.1780761526       -5.6832561049
 H          3.2638039548       -5.0738877909       -4.3342828281
 H          4.4097885267       -4.2010119937       -3.3128568803
 H         -2.4829159002        5.7266701945        2.0120483383
 H         -3.0582378050        4.2559045461        2.8024932547
 H          0.5278940242        5.2752628643        4.5738145537
 H          1.0988515305        6.7589953819        3.8042436043
 H         -5.4144017124       -0.9282846212       -2.1622209405
 H         -6.3046823596       -2.2026966339       -1.3253062685
 H         -5.8893156354        0.9508634808        1.3107772700
 H         -5.0228087019        2.2359347283        0.4641019404
 H          6.8924184382       -2.4049449817        1.4734286085
 H          7.6495408336       -1.2820401198        2.6067628854
 H          4.7056293916       -3.3071417731        4.6684890785
 H          3.9532806643       -4.4421910282        3.5452934702
 H          1.5467323501        0.9928563417        0.0635513254
 H         -1.7401049714       -2.5926845319       -1.8177616783
 H          3.0157470653        2.7250834309        2.6158803203
 H          0.2351404857       -1.1750916173        0.5932625063
 H          0.2319269175        0.6530039704       -3.9846789337
 H          1.7495436379       -4.5813159218       -0.3376593242
 H         -1.8413912339        3.2362427353       -1.2382669570
 H         -1.6801964823       -4.0720188981        2.1866939793
 H          2.9810719315        4.2038797332       -1.3896725394
 H         -2.3697786901        0.5711778580        3.4864981490
 H          5.3624252034        0.7800603756       -0.3891230228
 H          1.5066370364       -0.8829759824        4.6589774916
 H          2.7565099658       -0.4200107563       -1.4065161559
 H          0.1374720440       -2.9231896155       -3.2956283723
 H          0.3112233289        2.2222093575        1.6633972785
 H         -3.5284152011       -2.7243365893        1.4712458594
 H          1.4536237822        5.1299289192        0.2026966287
 H         -1.7935550764       -0.2115390664       -0.1395739367
 H          4.3964510763        0.8434542527        3.2370816160
 H          2.3696443773       -2.0280672747        1.1788451659
 H          3.9772686340       -1.7574155147       -2.7326766660
 H          1.9387103372       -2.9820293466       -4.6551091757
 H         -0.6969718796        3.5483501851        3.2178662367
 H          0.0095609944        6.0787435742        1.6602203248
 H         -5.3136391830       -1.4763573043        0.8528758502
 H         -3.8077753459        0.5234790939       -0.8965930662
 H          5.4883065286       -1.0453097270        3.8344238806
 H          4.3930550950       -2.8831831195        1.6496197235
 C        -10.4545493343        0.3880543223       -3.6699616614
 C        -11.2059465061       -0.2759953921       -4.8251852918
 O         -9.0739829313        0.0701878199       -3.7270592109
 C         -8.5210773272        0.4658245358       -4.9718649235
 C         -9.2730144348       -0.1970876427       -6.1271955536
 O        -10.6543894804        0.1180529256       -6.0703110237
 H        -10.8139078494        0.0199922189       -2.7088553830
 H        -11.1425403133       -1.3693223902       -4.7246411185
 H         -8.5835594790        1.5589081296       -5.0698981173
 H         -9.1427736932       -1.2877486873       -6.0730432182
 H        -12.2503872780        0.0355371675       -4.8418581505
 H         -7.4771152540        0.1536562558       -4.9574311498
 H         -8.9150373016        0.1725488161       -7.0881020582
 H        -10.5824232066        1.4785672115       -3.7257919148