142
-211.12657771
 C          1.3384118579       -6.7170416524        2.4706475981
 C          0.6916200045       -6.7226700387        1.0893415630
 C         -2.7524862570        5.0614893221        5.5383665937
 C         -3.4673457391        5.1139329620        4.1921076997
 C         -2.3800212018        6.6265599250       -3.2376497441
 C         -2.6887496863        6.1039839801       -4.6368454182
 C          7.7246604367       -1.3668875440       -2.0613973731
 C          7.3844473898       -1.7925644194       -3.4859689790
 C          2.0877235885       -5.4095117141        2.6994353987
 C         -0.2500518706       -5.5341686158        0.9384305397
 C         -1.7932247297        3.8777525049        5.5854722479
 C         -2.4550500923        5.2051206683        3.0559596631
 C         -2.6820778764        5.5585890466       -2.1926037960
 C         -1.8847125634        4.8406899376       -4.9217314065
 C          6.9252057908       -0.1297443521       -1.6710768194
 C          5.8894261638       -2.0594342563       -3.6167736698
 C          1.4159403963        0.4014481456        3.7897335234
 C         -0.8544723350        0.1365571418       -0.3713639880
 C          1.8992879618        2.0369325250        0.4000402101
 C          0.5321190801        0.5159973755       -3.8827763682
 C          3.4268142539       -0.6015938956        2.9241156890
 C         -2.3535582113       -1.0382432065        1.1011450477
 C          3.3497663775        1.7733402616        3.3668695500
 C         -2.9328186541        1.1621992196        0.2844456371
 C          1.5484507368        4.3982691632        0.0796703675
 C         -1.3435786228       -0.9365616856       -3.4670852971
 C          3.3581357966        3.2733971303       -1.0623352374
 C          0.9104258898       -1.7999230080       -3.3418873015
 C          1.4163521780       -2.0091486348        3.2874211644
 C         -0.2303651248       -2.1163617724        0.4179809696
 C          1.2525742895        2.8499641921        4.0932991759
 C         -1.3982338675        2.3740531305       -1.2391470902
 C          0.0476840472        3.1328840243        1.5935582572
 C         -1.7512859039        1.4650607124       -3.8538393063
 C          3.7461592739        0.8499012244       -0.7258932576
 C          2.8501603829       -0.2946505323       -3.6957367376
 C          2.1013787740       -0.7247367620        3.3496864465
 C         -1.1582655808       -0.9941488225        0.3810189047
 C          2.0248102290        1.6554900082        3.7843346428
 C         -1.7338132457        1.2153572491       -0.4254464783
 C          1.1738323616        3.1938624205        0.6742108421
 C         -0.8449749310        0.3290358515       -3.7726177509
 C          2.9940985596        2.0683315989       -0.4585763101
 C          1.4135271744       -0.5344497611       -3.6558049566
 C          4.0279098348        0.6405868727        2.9517696565
 C         -3.2149942481        0.0401957106        1.0415243065
 C          2.6277533088        4.4126890840       -0.7843988600
 C         -0.4560083577       -1.9790357499       -3.2650607239
 C          1.1524895677       -4.2092393900        2.5600426997
 C          0.4907491221       -4.2136819407        1.1573404064
 C         -0.7614683688        3.9596309484        4.4631984308
 C         -1.4943372554        4.0205697967        3.0822418560
 C         -1.8772110440        4.2900611748       -2.4570057298
 C         -2.1855578313        3.7528455788       -3.8937304001
 C          5.4216660409       -0.3859462585       -1.7890888683
 C          5.0750684324       -0.8237995110       -3.2360914983
 Br         5.8395930956        0.8128775444        2.3677148754
 Br        -4.8417481957       -0.0129677195        2.0425214058
 Br         3.1147115789        6.0575783064       -1.6262918591
 Br        -1.1471944118       -3.7081238880       -2.8329976919
 N          1.9075027741       -2.9985359973        2.6755893058
 N         -0.4510322960       -3.1410262756        1.1194322439
 N          0.0333804726        2.7796350095        4.4259061731
 N         -2.2461298093        3.2653009488       -1.5339072067
 N         -0.4920843751        4.1699615213        2.0765672559
 N         -1.3246890095        2.6349745767       -4.0802547166
 N          4.7213779518        0.8302388224       -1.5254264014
 N          3.6801040629       -1.1435116970       -3.2655296607
 H          0.5663957977       -6.8322316366        3.2347306140
 H          2.0320518950       -7.5544215322        2.5633542085
 H          0.1316543969       -7.6472191377        0.9407741370
 H          1.4671683047       -6.6714535939        0.3220851249
 H         -2.1943179419        5.9880088405        5.6913281182
 H         -3.4811889267        4.9695142747        6.3452953461
 H         -4.0737347002        4.2140636957        4.0666326663
 H         -4.1335572839        5.9772933846        4.1557135207
 H         -1.3255256198        6.9052067186       -3.1776615637
 H         -2.9762878880        7.5166060300       -3.0307118315
 H         -2.4461095913        6.8634992393       -5.3817397285
 H         -3.7553892494        5.8817255713       -4.7161368615
 H          8.7904441247       -1.1480761761       -1.9795740963
 H          7.4939755151       -2.1812898000       -1.3712450422
 H          7.9388592966       -2.6946604544       -3.7501625825
 H          7.6750203740       -1.0021313084       -4.1815872200
 H          2.5304244370       -5.3924374040        3.6974738256
 H          2.8939361306       -5.3040283718        1.9715608153
 H         -0.6941691017       -5.5219806273       -0.0587841060
 H         -1.0595653916       -5.5977291130        1.6672241598
 H         -2.3430505420        2.9410896597        5.4797524180
 H         -1.2648991382        3.8528898910        6.5407971488
 H         -1.8728436258        6.1243559479        3.1381380769
 H         -2.9659785917        5.2134495249        2.0915778438
 H         -3.7430005688        5.3036459462       -2.2051470299
 H         -2.4335254523        5.9229053167       -1.1942620850
 H         -0.8157371257        5.0577306559       -4.8903908218
 H         -2.1215021311        4.4537918888       -5.9150305489
 H          7.1819860700        0.7077307426       -2.3216113883
 H          7.1478788466        0.1611666135       -0.6426653493
 H          5.5939451259       -2.8811743478       -2.9623075651
 H          5.6397162794       -2.3390032599       -4.6423769625
 H          0.3898158007        0.3333541123        4.1162085501
 H          0.0695567997        0.1778680594       -0.9306002907
 H          1.6113658424        1.1072612185        0.8702662061
 H          0.8961685336        1.5037212421       -4.1194847963
 H          3.9503056795       -1.4800385924        2.5820988288
 H         -2.5781735935       -1.9166440107        1.6843696990
 H          3.8354381538        2.7374957643        3.3571892332
 H         -3.6093502792        1.9999664907        0.2318707276
 H          0.9838495101        5.2893225995        0.3023372272
 H         -2.4074331345       -1.0974206444       -3.3782630931
 H          4.2050664452        3.2868797348       -1.7292053054
 H          1.6014263451       -2.6086221017       -3.1652165327
 H          0.4350111933       -2.0489635464        3.7802772564
 H          0.6696420689       -2.0105715767       -0.2081571484
 H          1.7748058085        3.8097530622        3.9687337176
 H         -0.3562418420        2.4164216974       -1.5885707301
 H         -0.2972366633        2.1196325250        1.8465295166
 H         -2.8119751509        1.2531116899       -3.6550990879
 H          3.4091196044       -0.0464876039       -0.1816973909
 H          3.1586298912        0.6814354168       -4.0952920357
 H          0.3413193177       -4.2569452655        3.3062020216
 H          1.2887238736       -4.0872505624        0.4046902116
 H         -0.1502492335        4.8743163557        4.5537356855
 H         -2.0405168199        3.0690956139        2.9730382127
 H         -0.7948505430        4.4970580910       -2.4232601707
 H         -3.2521232582        3.4694389049       -3.9187021578
 H          5.1113182115       -1.1957951155       -1.1056815772
 H          5.3140816282        0.0226252672       -3.9020230877
 C         -9.5521000947       -9.6878390246       -0.9909383690
 C        -10.8062369832       -9.5391945554       -0.1271579291
 O         -8.4405850177      -10.0638952286       -0.1952563652
 C         -8.7104041343      -11.2678455119        0.5031393390
 C         -9.9643324814      -11.1188585969        1.3671192315
 O        -11.0760365798      -10.7433435192        0.5711715275
 H         -9.2856077074       -8.7397082879       -1.4581485438
 H        -10.6616611877       -8.7211075535        0.5932433838
 H         -8.8552367118      -12.0860017899       -0.2172055381
 H         -9.7904559584      -10.3551329151        2.1388996711
 H        -11.6832205973       -9.3411888591       -0.7435822323
 H         -7.8332745685      -11.4657894076        1.1193606336
 H        -10.2306842975      -12.0666971349        1.8350191620
 H         -9.7259328205      -10.4509545524       -1.7634083958