142
-211.12901682
 C          3.0985199895       -5.3315255038        6.7657152714
 C          4.0634116840       -6.0945015362        5.8629257842
 C         -3.7971346628        4.8987105463        5.1575942264
 C         -5.0504613040        4.0974176048        4.8252962862
 C          7.6102108218        3.3670425627       -2.3059383814
 C          6.7131482562        4.4492057083       -1.7121955260
 C         -2.7794531279        2.7614809684       -7.7557306552
 C         -1.5302408485        1.9586032905       -8.1051895969
 C          3.1411500137       -3.8385410857        6.4584175699
 C          3.7420208859       -5.8356169828        4.3948008619
 C         -2.5662913712        4.0047063223        5.0784738802
 C         -4.9262109096        3.4787720492        3.4386644292
 C          7.2732711923        2.0034226986       -1.7118098355
 C          5.2427205975        4.1112368020       -1.9351696739
 C         -3.5288978284        2.1065175207       -6.6009697928
 C         -0.6235161510        1.8243625007       -6.8868383249
 C          0.8853285249        0.6556954930        3.7715701062
 C          4.3448658352       -1.8428432830        0.0453659659
 C         -3.4725267479        1.2044894803       -0.7153398264
 C          1.0717474462        1.0257699511       -2.1705297819
 C          3.2829754321        0.4358657153        3.6914724961
 C          2.5864314772       -3.4917466070        0.0843671255
 C          2.2369433412        2.5210901529        3.0638969794
 C          2.8691213803       -2.0650642648       -1.8439802648
 C         -4.4582299630       -0.8401953875        0.0878422329
 C          1.1692329678        0.2193911765        0.0982174318
 C         -4.1452564719       -0.4979241541       -2.2808269997
 C         -0.5563959722       -0.5716918221       -1.3896252562
 C          1.9150999851       -1.5223431818        4.3276688929
 C          4.0679457139       -3.2449291661        2.0528498865
 C         -0.2036843828        2.8140307391        3.2098247969
 C          4.5523858823       -0.2828931845       -1.8780969265
 C         -3.8682573952        0.9057233189        1.7163081201
 C          2.9633362738        1.6819579050       -0.6938033863
 C         -3.0793535740        1.5644887966       -3.1250075812
 C         -0.7150337456        0.2218998975       -3.7040908026
 C          2.0260314445       -0.1223717803        3.9376386034
 C          3.6713396268       -2.8658571536        0.7042398602
 C          0.9829468153        1.9784489010        3.3429941244
 C          3.9442118332       -1.4299035149       -1.2231732869
 C         -3.9156938040        0.4177637545        0.3450075616
 C          1.6987155249        1.0044330821       -0.9275707476
 C         -3.5821816939        0.7544822117       -2.0256359968
 C         -0.0444066056        0.2309430026       -2.4106223209
 C          3.3646712047        1.7421807743        3.2554892573
 C          2.2105578349       -3.0827057783       -1.1781627228
 C         -4.5716278555       -1.2700307114       -1.2209984520
 C          0.0441387689       -0.5415202631       -0.1469465790
 C          2.7962539476       -3.5826131669        4.9890051694
 C          3.8011923857       -4.3404276465        4.0884630607
 C         -2.4225539465        3.3743946022        3.6851199650
 C         -3.6892415001        2.5748039301        3.3389388132
 C          5.8083906016        1.6568158156       -1.9573097363
 C          4.9070050541        2.7612324867       -1.3110453461
 C         -2.6353856088        1.9837492996       -5.3696741138
 C         -1.3579761413        1.1560819785       -5.7282410443
 Br         5.0855960269        2.4977224717        2.8941374674
 Br         0.7153405225       -3.9161654652       -2.0310842919
 Br        -5.3471678668       -2.9789159584       -1.5728430424
 Br        -0.6772300123       -1.6020283757        1.2582752776
 N          2.9232567078       -2.1896945494        4.6897209614
 N          3.4257587170       -4.0952325045        2.7294504608
 N         -1.3034474600        2.4829155640        3.7306404392
 N          5.4574335483        0.4195640964       -1.3388243809
 N         -3.6040019103        2.1104664785        1.9859489465
 N          3.5544455245        2.3840946689       -1.5650435672
 N         -3.3035515015        1.2668070336       -4.3356178419
 N         -0.5357245682        1.1346996505       -4.5617468515
 H          2.0835900718       -5.7037528125        6.6095762274
 H          3.3600373423       -5.4936405488        7.8129571332
 H          3.9975550783       -7.1644645887        6.0674618846
 H          5.0867767589       -5.7740147480        6.0716281329
 H         -3.6944150524        5.7255237952        4.4512516594
 H         -3.8745956559        5.3192103557        6.1617643587
 H         -5.1853346826        3.3070776422        5.5668516688
 H         -5.9293286665        4.7437958141        4.8560126873
 H          7.4720063025        3.3337720844       -3.3892272011
 H          8.6572449511        3.6014280373       -2.1071431201
 H          6.9395851047        5.4135354621       -2.1702527581
 H          6.9045393616        4.5304455967       -0.6398051631
 H         -3.4369000109        2.8275810246       -8.6241646372
 H         -2.4923602175        3.7767198953       -7.4723748324
 H         -0.9844792077        2.4495245304       -8.9127556882
 H         -1.8221096575        0.9644717486       -8.4513377354
 H          2.4274890706       -3.2994890333        7.0853921533
 H          4.1364829305       -3.4377166618        6.6581682663
 H          4.4541085055       -6.3560639970        3.7511988433
 H          2.7419227684       -6.1995287736        4.1540890489
 H         -2.6379173136        3.1993030335        5.8118583903
 H         -1.6620113704        4.5777387980        5.2961325165
 H         -4.8396393462        4.2618361712        2.6827890432
 H         -5.8114335464        2.8828992543        3.2054498077
 H          7.4556052672        2.0016345044       -0.6361888210
 H          7.8961312074        1.2279359366       -2.1621390795
 H          5.0158890402        4.0719517805       -3.0017267280
 H          4.6058322550        4.8735510078       -1.4822607529
 H         -3.8650280998        1.1080303076       -6.8853380220
 H         -4.4093694972        2.6955157797       -6.3356739365
 H         -0.2812537328        2.8067711512       -6.5575384312
 H          0.2562415234        1.2260536046       -7.1317784691
 H         -0.0941920394        0.2499644373        3.9685987120
 H          5.1789234707       -1.3374758042        0.5068125915
 H         -3.0520675154        2.1737293380       -0.4956217844
 H          1.4708726470        1.6415399273       -2.9595454518
 H          4.1606842940       -0.1719549280        3.8392661202
 H          2.0630535608       -4.2730123060        0.6116510524
 H          2.3270641044        3.5394310129        2.7162946091
 H          2.5447234280       -1.7520864871       -2.8249905606
 H         -4.7971875077       -1.4644988017        0.9004188178
 H          1.6424015072        0.1967379422        1.0682393030
 H         -4.2347442382       -0.8368870665       -3.3006130012
 H         -1.4121546392       -1.2036255522       -1.5698939081
 H          0.9080433647       -1.9559688011        4.2623166048
 H          4.9488801209       -2.7222148255        2.4514877490
 H         -0.0675621041        3.7619123639        2.6672614680
 H          4.1347547904       -0.0318282607       -2.8645294689
 H         -4.1166797464        0.1707152779        2.4950562980
 H          3.4118155400        1.4899803910        0.2925388034
 H         -2.4907167191        2.4482876187       -2.8377102914
 H         -1.3983073046       -0.6216398047       -3.8756820570
 H          1.7797927664       -3.9539174611        4.7711643035
 H          4.8068238157       -3.9409798833        4.3081795458
 H         -2.2852627538        4.1686471109        2.9307015211
 H         -3.7794391968        1.7382834382        4.0534038663
 H          5.5837282228        1.6499936874       -3.0378503397
 H          5.1342742922        2.7673404940       -0.2322997110
 H         -2.2951103683        2.9774634428       -5.0304015729
 H         -1.6996669801        0.1459716961       -6.0098811844
 C         -7.4444765556        0.4742652037       -2.8851671924
 C         -6.9041065335        1.2950719442       -4.0562255088
 O         -6.8224941345        0.8647615885       -1.6697111583
 C         -7.0118464013        2.2491908401       -1.4355934911
 C         -6.4819749667        3.0740459863       -2.6099360129
 O         -7.1038373912        2.6816140830       -3.8196254016
 H         -7.2254165396       -0.5848675726       -3.0160915320
 H         -5.8314265016        1.0985637811       -4.1895059815
 H         -8.0833366514        2.4539935087       -1.2966869988
 H         -5.3950424738        2.9331343928       -2.6936742062
 H         -7.4450624689        1.0642088438       -4.9738976568
 H         -6.4655737654        2.4810260553       -0.5211986091
 H         -6.7123801829        4.1313466847       -2.4766024515
 H         -8.5309413882        0.6209841964       -2.8018111700