142
-211.12886055
 C          0.8403140257       -6.7088372579        3.3539272653
 C         -0.2461028195       -6.8102413159        2.2882204317
 C         -1.6691439197        5.5508949849        6.4074758906
 C         -2.8304445870        5.4971898683        5.4200626866
 C         -4.4794146328        6.1600749437       -2.1606190557
 C         -5.2875751891        5.5181145079       -3.2836960711
 C          5.1127170584       -2.4167142673       -3.5632488226
 C          4.2738834206       -2.9344794027       -4.7269084209
 C          1.6408027628       -5.4242818767        3.1733872485
 C         -1.1651947409       -5.5963252467        2.3497086081
 C         -0.7816982485        4.3209639510        6.2534298861
 C         -2.3099808333        5.3916156307        3.9910204672
 C         -4.4103728311        5.2296540869       -0.9548906092
 C         -4.6790970985        4.1773719715       -3.6788401804
 C          4.5495822754       -1.0981169535       -3.0463317310
 C          2.8243035778       -3.1117598409       -4.2916205420
 C          1.4939707651        0.4854435328        3.8236756330
 C         -2.1448456261       -0.0738085609        0.7167315314
 C          0.6884864238        1.6457474435        0.3799782473
 C         -2.1927119029       -0.1929131640       -3.0107087200
 C          3.0460895352       -0.6983454032        2.4129923428
 C         -3.0172938709       -1.0046127862        2.7582022702
 C          3.1650167745        1.7084369778        2.5935752464
 C         -3.8279572030        1.1261363838        1.9529493224
 C          0.2984139577        3.9726460873       -0.1051256279
 C         -3.8470572236       -1.4373754051       -1.7798894244
 C          1.5355144879        2.5981040090       -1.6621944485
 C         -1.7281960650       -2.4578048959       -2.3367146987
 C          1.2765123986       -1.9589151921        3.6080187653
 C         -1.2974760505       -2.2579424047        1.4885754179
 C          1.4835221428        2.9581030425        3.8928050415
 C         -2.9373932511        2.0856970602       -0.1529062423
 C         -0.5686885022        3.0001800854        2.0037671821
 C         -4.2791065171        0.9325417304       -2.3069573312
 C          1.9577993842        0.2069516468       -1.1724040746
 C          0.0135898430       -1.1557182793       -3.5293570946
 C          1.9594433345       -0.7113215241        3.2916013296
 C         -2.1653846287       -1.1002043544        1.6562792578
 C          2.0773809413        1.6999846614        3.4657979544
 C         -2.9692829435        1.0398223418        0.8577209448
 C          0.1408240320        2.8747555731        0.7399080793
 C         -3.4460053588       -0.2567978521       -2.4036375029
 C          1.3902337529        1.4995844221       -0.8128235153
 C         -1.3252734914       -1.2780280528       -2.9681685905
 C          3.6343102335        0.5077829504        2.0905969158
 C         -3.8293733915        0.1058149396        2.8860745445
 C          0.9855876753        3.8107492225       -1.2939142348
 C         -2.9832713135       -2.5184246247       -1.7659500182
 C          0.7320389598       -4.1975579540        3.2403914171
 C         -0.3758736643       -4.2993145209        2.1604395816
 C         -0.2376238559        4.2111875036        4.8314129730
 C         -1.4299663859        4.1575866129        3.8195971400
 C         -3.7908060460        3.8886003919       -1.3346889554
 C         -4.6204639317        3.2277035851       -2.4851295798
 C          3.0921456397       -1.2530247177       -2.6072751592
 C          2.2418159655       -1.7924631694       -3.7865758471
 Br         5.1179392674        0.5288980541        0.8866137396
 Br        -4.9833227634        0.2432010622        4.4028899310
 Br         1.1695340849        5.3087904935       -2.4656580676
 Br        -3.5352725507       -4.1282836344       -0.8972285474
 N          1.4971618535       -3.0204655536        2.9609738794
 N         -1.2567371534       -3.1893885550        2.3378446809
 N          0.4738547863        2.9908993033        4.6554827279
 N         -3.8160439708        2.9931058801       -0.2231129509
 N         -0.8708660646        4.1210092114        2.5064356615
 N         -3.9264708380        2.0323925664       -2.8249194248
 N          2.5741468664        0.0311333078       -2.2584744066
 N          0.9152646650       -2.0077911034       -3.2945634087
 H          0.3802401400       -6.7143871074        4.3445683667
 H          1.5109822761       -7.5672489752        3.2888783722
 H         -0.8351491432       -7.7164349391        2.4374184007
 H          0.2153513096       -6.8671021859        1.2999600435
 H         -1.0772625533        6.4509109387        6.2256412972
 H         -2.0492059139        5.5979642984        7.4292186924
 H         -3.4575666361        4.6309298512        5.6425699196
 H         -3.4458398821        6.3929238240        5.5176497611
 H         -3.4677095595        6.3706206729       -2.5146521166
 H         -4.9365946450        7.1055334665       -1.8645378268
 H         -5.3079277520        6.1771292076       -4.1531226253
 H         -6.3169928214        5.3659149811       -2.9512112214
 H          6.1449258118       -2.2657221943       -3.8825980654
 H          5.1138356527       -3.1539615088       -2.7575518892
 H          4.6680570884       -3.8871611194       -5.0831322602
 H          4.3191972402       -2.2205406469       -5.5525397930
 H          2.4029657413       -5.3364449256        3.9504117331
 H          2.1451487545       -5.4264843339        2.2056188176
 H         -1.9298344594       -5.6548925427        1.5727709904
 H         -1.6699280411       -5.5522610213        3.3160322302
 H         -1.3479450071        3.4153500303        6.4769706346
 H          0.0620205033        4.3706986994        6.9448298031
 H         -1.7220699608        6.2742321436        3.7340293071
 H         -3.1417324970        5.3229468288        3.2876511372
 H         -5.4097772785        5.0487235603       -0.5559665471
 H         -3.8064783541        5.6772221949       -0.1635437922
 H         -3.6652843400        4.3187414207       -4.0569654050
 H         -5.2708276872        3.7077591149       -4.4672927795
 H          4.5913540288       -0.3378198491       -3.8278383179
 H          5.1323206210       -0.7388740585       -2.1958075905
 H          2.7579336161       -3.8492134331       -3.4901445726
 H          2.2157827560       -3.4658144963       -5.1260767549
 H          0.6524535152        0.5017846295        4.4988064999
 H         -1.4888105650       -0.1425813531       -0.1394865952
 H          0.5734176141        0.7996061343        1.0425718924
 H         -1.9018472553        0.7308903914       -3.4862925192
 H          3.3997431281       -1.6313504229        2.0043111616
 H         -3.0245275679       -1.8032574371        3.4823053884
 H          3.6270389861        2.6409943004        2.3064313265
 H         -4.4666710789        1.9892304458        2.0502067899
 H         -0.1245857978        4.9209303886        0.1849281617
 H         -4.8141798876       -1.5023646638       -1.3044519503
 H          2.0780398371        2.4741694258       -2.5855051303
 H         -1.0481836575       -3.2940872607       -2.3077505977
 H          0.5373914432       -1.9054457726        4.4193656770
 H         -0.6851093960       -2.2639679815        0.5728422923
 H          1.9300913010        3.8699235668        3.4698918808
 H         -2.0973950563        2.0268862971       -0.8606393122
 H         -0.8162703185        2.0494037298        2.4983788656
 H         -5.1994817674        0.8303337164       -1.7136149534
 H          1.8132337935       -0.5985144553       -0.4349444717
 H          0.1943267312       -0.2592148008       -4.1386904049
 H          0.2310043270       -4.1353859441        4.2213077555
 H          0.1114497249       -4.2833247934        1.1695942351
 H          0.3745028537        5.0930011345        4.5739686471
 H         -1.9943901245        3.2381367044        4.0464740116
 H         -2.7678936834        4.0246249359       -1.7227341391
 H         -5.6313951506        3.0268352901       -2.0900302125
 H          3.0117790080       -1.9710061494       -1.7722362700
 H          2.2619756918       -1.0286059427       -4.5825892818
 C          7.0015917332       -5.1775875444       -6.9725267508
 C          7.7010098627       -6.3623198369       -7.6410977479
 O          6.1044619314       -5.6284857351       -5.9710795917
 C          6.7846335415       -6.4153984412       -5.0071147264
 C          7.4830560656       -7.5999010413       -5.6770183046
 O          8.3811049111       -7.1485346630       -6.6769706539
 H          6.4007338992       -4.6225954119       -7.6929799052
 H          6.9575290155       -6.9824447404       -8.1626516120
 H          7.5284261164       -5.7953660726       -4.4865547142
 H          6.7312205133       -8.2621938474       -6.1303388633
 H          8.4592855269       -6.0204056436       -8.3456236823
 H          6.0264402449       -6.7574820026       -4.3026307796
 H          8.0830329912       -8.1568390837       -4.9572537360
 H          7.7525226149       -4.5142522817       -6.5200777285