142
-211.12895510
 C         -4.1936622426       -4.7705948867        5.6614943843
 C         -4.7600517530       -5.5923945519        4.5072310993
 C          4.3613252970        4.2033168666        6.2141200945
 C          3.3135660366        5.3083554774        6.1504886788
 C          5.0575702955       -5.1471933399       -3.9915812934
 C          5.9840310028       -4.2571387007       -3.1682988197
 C          2.5449972381        5.9963347338       -6.6994085404
 C          2.0267989799        4.7221570415       -7.3588687544
 C         -2.7231868431       -4.4464904528        5.4204084962
 C         -4.5804574626       -4.8548609947        3.1844718152
 C          3.7503232999        2.8764944286        5.7825211227
 C          2.7484803852        5.4136202206        4.7398498295
 C          3.6718949408       -5.2127294179       -3.3578859824
 C          5.3927765895       -2.8594810648       -3.0166217159
 C          1.7457025208        6.3075667198       -5.4390906545
 C          2.0896728507        3.5529539369       -6.3824713250
 C          1.2063397528       -0.7445907306        3.5421277338
 C         -0.5619015496       -3.5130687168       -0.9793511759
 C          0.8776433429        4.6923371277        0.2311693609
 C          1.6434116767        0.6420299856       -2.2647475973
 C          1.4707763235       -3.0415578246        2.8670515736
 C         -2.4707580581       -2.1165691688       -0.5164646671
 C          3.2932390408       -1.4799433055        2.5876927476
 C         -1.0953680967       -1.6867149252       -2.4532465107
 C         -1.3453977056        4.9553402653        1.1207328831
 C          0.8916582835       -0.1642461980       -0.1220809450
 C         -0.9185363798        5.3898627011       -1.2160396243
 C         -0.2108999370        1.7144242491       -1.1588909616
 C         -0.7122800379       -2.2868430495        3.7521753422
 C         -1.9407121681       -3.9970183873        1.0030516167
 C          3.0889750732        0.8573676986        3.3413451340
 C          0.9474448513       -2.9758826629       -2.8768702869
 C          0.4742960442        4.3385313560        2.6564519626
 C          2.6378105679       -1.4189417754       -1.2918178270
 C          1.3292404501        5.0162305543       -2.1741491190
 C          0.5103309441        2.5776231394       -3.3389212155
 C          0.6758086872       -2.0216794043        3.3961115297
 C         -1.6592326426       -3.2032018033       -0.1834918290
 C          2.5144833701       -0.4680322444        3.1483989107
 C         -0.2654646108       -2.7524831758       -2.1072744222
 C          0.0016286707        4.6503043489        1.3142068061
 C          1.7474625998       -0.2721177937       -1.2197865305
 C          0.4260646567        5.0542217171       -1.0333074478
 C          0.6592828503        1.6248733168       -2.2465983926
 C          2.7592303772       -2.7511030909        2.4680061106
 C         -2.1800642582       -1.3896697826       -1.6508688414
 C         -1.7794804126        5.3282230366       -0.1393049081
 C         -0.0603064423        0.8349986606       -0.1055075095
 C         -2.5501424054       -3.6849729993        4.1041589564
 C         -3.1059708667       -4.5430581376        2.9409615622
 C          3.1728912428        2.9603901774        4.3612598404
 C          2.1273457114        4.0849335013        4.2851330136
 C          3.0724529793       -3.8160489691       -3.2308474114
 C          4.0207511715       -2.9305540390       -2.3552340030
 C          1.8173735816        5.1505420682       -4.4454454445
 C          1.2818097092        3.8479065142       -5.1218541324
 Br         3.8374269817       -4.1426191128        1.7155146817
 Br        -3.2831284695        0.0902266925       -2.1174556467
 Br        -3.6269043004        5.7674635900       -0.3935933289
 Br        -1.2225300441        0.9773964267        1.3922512127
 N         -1.1621702584       -3.4628823955        3.8404369384
 N         -2.9463910910       -3.7833103648        1.7376324428
 N          2.5348519129        1.7087834429        4.0884991952
 N          1.8090703240       -3.8511383949       -2.5679675468
 N          1.7046462682        4.2558482492        2.9267915814
 N          3.4112117197       -1.6433712631       -2.2679831026
 N          0.9718425639        5.3989129714       -3.3260573978
 N          1.4349672538        2.7887998890       -4.1756979282
 H         -4.7579318329       -3.8402058990        5.7564465072
 H         -4.2941277613       -5.3230667301        6.5974285979
 H         -5.8206647007       -5.7876167581        4.6737412798
 H         -4.2445959740       -6.5543467997        4.4583822841
 H          5.1961444870        4.4532184928        5.5555539594
 H          4.7483679980        4.1091991150        7.2302899493
 H          2.5063435436        5.0867167243        6.8519519457
 H          3.7567440784        6.2641500775        6.4354686968
 H          4.9734101771       -4.7463457648       -5.0044800890
 H          5.4734658621       -6.1536436427       -4.0612517526
 H          6.9609348142       -4.1897855432       -3.6500696597
 H          6.1242983144       -4.6973255043       -2.1784327960
 H          2.4692148663        6.8345136405       -7.3942119711
 H          3.5981867974        5.8685976173       -6.4386853596
 H          2.6222119307        4.4905588529       -8.2437253920
 H          0.9930428603        4.8728046760       -7.6781537023
 H         -2.3289530521       -3.8339070275        6.2342076951
 H         -2.1346325487       -5.3643668910        5.3726846307
 H         -4.9564974387       -5.4607030346        2.3575900286
 H         -5.1364416055       -3.9159039317        3.1951132535
 H          2.9434465431        2.5951215574        6.4618894635
 H          4.5011444840        2.0832512454        5.8061815388
 H          3.5394678318        5.6797026818        4.0359976346
 H          1.9816383109        6.1898645188        4.6915978617
 H          3.7288835241       -5.6585516005       -2.3637458480
 H          3.0039934911       -5.8258589161       -3.9663173637
 H          5.2885608829       -2.3795928739       -3.9909927995
 H          6.0451623332       -2.2367047046       -2.4015176909
 H          0.6981907211        6.4843811041       -5.6881638854
 H          2.1329246638        7.2064056068       -4.9547928116
 H          3.1227661387        3.3556824211       -6.0916947681
 H          1.6922145257        2.6481493173       -6.8464516785
 H          0.6159608054        0.0550896611        3.9600653998
 H          0.0871050162       -4.3401790240       -0.7361302628
 H          1.9129620769        4.4393805883        0.3983144041
 H          2.3110401854        0.5676910644       -3.1071822811
 H          1.0555750275       -4.0317312733        2.7733609917
 H         -3.3026571439       -1.8661885355        0.1217303160
 H          4.3028282517       -1.2768270923        2.2630009338
 H         -0.8803271350       -1.0917102912       -3.3282543271
 H         -2.0393911935        4.9073982245        1.9458178729
 H          0.9624301689       -0.8644984008        0.6965115926
 H         -1.2561572606        5.6805821644       -2.1977930071
 H         -0.9892248061        2.4613389982       -1.1431719757
 H         -1.3381739359       -1.3985980153        3.9134358207
 H         -1.2189161806       -4.7972323943        1.2198159953
 H          4.0455060357        1.0488133073        2.8319093848
 H          1.0968364376       -2.2900242577       -3.7241574301
 H         -0.3047946626        4.2244562596        3.4233919831
 H          2.5468300180       -2.1264516793       -0.4539723908
 H          2.3310402677        4.6082573264       -1.9751924812
 H         -0.4518127676        3.1069559599       -3.3761564916
 H         -3.1140706833       -2.7364931582        4.1410277507
 H         -2.5136041656       -5.4737498558        2.9100118670
 H          3.9825706039        3.1762842304        3.6426152998
 H          1.2836968291        3.8211535171        4.9462838471
 H          3.0002143888       -3.3299910247       -4.2191246092
 H          4.0916969313       -3.4175477214       -1.3685903934
 H          2.8616037855        4.9580885098       -4.1424123084
 H          0.2221482637        4.0282681406       -5.3676164105
 C         -5.3928672130       -3.4387263889       -1.9037448870
 C         -5.5691766941       -4.2248207894       -0.6047915172
 O         -4.1143929959       -3.6889546257       -2.4706330108
 C         -3.9384757282       -5.0756854098       -2.7027586420
 C         -4.1214211304       -5.8671379473       -1.4065679687
 O         -5.3945532032       -5.6151798733       -0.8413090159
 H         -5.4451640491       -2.3657151830       -1.7218414055
 H         -4.8361650324       -3.8877955453        0.1410994246
 H         -4.6701990580       -5.4173895161       -3.4491137489
 H         -3.3383910548       -5.5798749106       -0.6906413235
 H         -6.5811596703       -4.1092401092       -0.2167835147
 H         -2.9269994554       -5.1951507482       -3.0918354838
 H         -4.0780241302       -6.9396261706       -1.5977472017
 H         -6.1721199320       -3.7309087907       -2.6221326110