142
-211.12768194
 C          3.7000109020       -6.8735465836        2.2179364317
 C          3.5544681260       -7.0181385515        0.7065253193
 C         -5.8176011605        1.7630592775        3.4914786740
 C         -6.0869300652        1.6123671273        1.9974944131
 C         -3.5499777888        4.0456382056       -5.0170479016
 C         -3.2043510021        3.5481046510       -6.4169355778
 C          8.0085812542        0.5104479046       -0.3494409152
 C          8.3231824902        0.1033862010       -1.7853079082
 C          3.6914843957       -5.4013186839        2.6128700725
 C          2.2737159058       -6.3444159979        0.2289308123
 C         -4.5135246816        1.0697068748        3.8692282284
 C         -4.9274533165        2.1806844124        1.1868279905
 C         -3.6752907235        2.8729988190       -4.0508104088
 C         -1.9131665742        2.7379345130       -6.3913490016
 C          6.7121549353        1.3095545083       -0.2957213885
 C          7.1719936499       -0.7058137878       -2.3715538296
 C          0.2550331260       -0.5871784475        3.2345303459
 C         -0.3370259661       -1.4153099155       -1.4955977922
 C          0.8895523037        1.2018344745        0.0653649615
 C          1.6104841042       -0.3722912307       -4.4556092064
 C          2.6557145600       -0.5452593073        3.0431373076
 C         -1.5360856265       -3.2118470560       -0.4330237271
 C          1.4274912406        1.5145450478        3.3359612984
 C         -2.7453579960       -1.4119758699       -1.5032249750
 C         -0.2677123534        3.2360447541       -0.5025245831
 C          0.4142814580       -2.4602502331       -4.5605186916
 C          2.0845361140        2.9945974088       -1.0082095983
 C          2.6746851920       -2.3999643648       -3.7090393219
 C          1.4552720933       -2.7049176081        2.8491327587
 C          0.9426876659       -3.2324688488       -0.4282896139
 C         -1.0359266151        1.5203959480        3.3630563033
 C         -1.5119217302        0.4378637553       -2.6032738195
 C         -1.5000688754        1.3927561751        0.6093423982
 C         -0.7597531068       -0.3799230458       -5.1658287824
 C          3.2906442242        0.9120978079       -0.4134641277
 C          3.8828698895       -0.2441703775       -3.5121387934
 C          1.4572596073       -1.2637327404        3.0637699891
 C         -0.3257469770       -2.6157894393       -0.7919470558
 C          0.2292813855        0.8017890357        3.3519964041
 C         -1.5382787200       -0.8077987489       -1.8526782812
 C         -0.2829700008        1.9529223650        0.0428537318
 C          0.4498851373       -1.0811385328       -4.7624312029
 C          2.0756847918        1.7145331959       -0.4510680555
 C          2.7162018775       -1.0184256073       -3.9151435655
 C          2.6190002395        0.8263511410        3.1905925775
 C         -2.7205063187       -2.5983733672       -0.7933705479
 C          0.9139664408        3.7284540653       -1.0251973385
 C          1.5308683920       -3.0948775858       -4.0456783097
 C          2.4083159854       -4.7153914719        2.1456940737
 C          2.2585626372       -4.8625456092        0.6095826188
 C         -3.3406482536        1.6468686265        3.0810046793
 C         -3.6168191785        1.4895927069        1.5492265149
 C         -2.3830450598        2.0640956727       -4.0057923976
 C         -2.0301082110        1.5493631436       -5.4405623748
 C          5.5463780260        0.5020144469       -0.8701160546
 C          5.8663346174        0.0870704944       -2.3292235519
 Br         4.2556004258        1.8116879821        3.1568118798
 Br        -4.3764257705       -3.4058677804       -0.2862288475
 Br         0.9229075736        5.4737684794       -1.8029862792
 Br         1.4687352980       -4.9829242442       -3.7583286876
 N          2.4809591732       -3.3160836585        2.4383303492
 N          0.9988199169       -4.2992680026        0.2419743211
 N         -2.1471418649        0.9147751443        3.3389145630
 N         -2.5371840536        0.9184594798       -3.1672859401
 N         -2.5244675994        2.0929599058        0.8548355210
 N         -0.7818031714        0.8767966258       -5.3154570543
 N          4.3790974734        1.3242784158       -0.8991169189
 N          4.7900525385       -0.7387215487       -2.7863607964
 H          2.8739840836       -7.3878477166        2.7141451547
 H          4.6320080388       -7.3335705873        2.5506313797
 H          3.5310559813       -8.0735804639        0.4309761046
 H          4.4130818023       -6.5595472588        0.2111505597
 H         -5.7509363888        2.8237534544        3.7437964075
 H         -6.6386190559        1.3299034915        4.0646912434
 H         -6.2146256767        0.5549472870        1.7553731659
 H         -7.0074833316        2.1331606505        1.7294046896
 H         -2.7663899685        4.7215585912       -4.6672541274
 H         -4.4890319209        4.6008300823       -5.0391360201
 H         -3.0876226118        4.3942604653       -7.0959215594
 H         -4.0177604962        2.9232675966       -6.7929705448
 H          8.8216414794        1.1143785554        0.0563045798
 H          7.9107427546       -0.3832122624        0.2708014722
 H          9.2374797075       -0.4917081180       -1.8145553051
 H          8.4836586621        0.9983823254       -2.3905318216
 H          3.7684540737       -5.2960645476        3.6970128171
 H          4.5412437624       -4.8847720280        2.1633214282
 H          2.1788128959       -6.4268852331       -0.8554615778
 H          1.4032182280       -6.8232185880        0.6799754184
 H         -4.5782734348        0.0009278707        3.6591681653
 H         -4.3095049076        1.1919590155        4.9347585832
 H         -4.8187459494        3.2498250794        1.3760038707
 H         -5.1067247814        2.0430251607        0.1190549552
 H         -4.4875112575        2.2120449113       -4.3576342778
 H         -3.8939522399        3.2317516822       -3.0434768245
 H         -1.0808904765        3.3623664548       -6.0624756761
 H         -1.6793404860        2.3621849261       -7.3896055758
 H          6.8101184634        2.2294533210       -0.8741958319
 H          6.4731776833        1.5833083006        0.7336481683
 H          7.0327037756       -1.6287887897       -1.8061147310
 H          7.3833616924       -0.9747018987       -3.4085645670
 H         -0.6835627910       -1.1192226448        3.2476355356
 H          0.5967798350       -0.9501058822       -1.7779773887
 H          0.8767331064        0.2119025602        0.4989445192
 H          1.6162981510        0.6944341178       -4.6177118337
 H          3.5831183798       -1.0789126046        2.9102179786
 H         -1.5179298221       -4.1404354873        0.1143599492
 H          1.4233774516        2.5905022381        3.4247446881
 H         -3.6702779275       -0.9370994665       -1.7885305639
 H         -1.1786632998        3.8125802134       -0.5100452608
 H         -0.4776503220       -3.0226920722       -4.7922467049
 H          3.0070752254        3.3826523119       -1.4089013295
 H          3.5369502262       -2.8924375927       -3.2888856351
 H          0.4993713984       -3.2141404167        3.0341510320
 H          1.8441609475       -2.7049067367       -0.7786684157
 H         -0.9656070724        2.6177780833        3.3375594588
 H         -0.5299164743        0.9307849091       -2.6546913774
 H         -1.4632202378        0.3138365712        0.8204916590
 H         -1.6616820004       -0.9998558820       -5.2753575879
 H          3.1929461806       -0.0736618146        0.0687598816
 H          3.9017735217        0.8013287211       -3.8496355613
 H          1.5236334995       -5.1838885684        2.6092638580
 H          3.1010959495       -4.3316338596        0.1320845816
 H         -3.2209471987        2.7249961616        3.2860493781
 H         -3.6756388130        0.4070712859        1.3496337265
 H         -1.5379834573        2.6929337680       -3.6807459330
 H         -2.8408386158        0.8698835460       -5.7563828057
 H          5.3858542025       -0.4182831992       -0.2810171929
 H          5.9515130383        1.0124270129       -2.9237847939
 C         -7.7871400984        4.2340263481        7.4585583251
 C         -6.7931593757        3.1782600789        7.9471144041
 O         -8.9999800454        4.1525505464        8.1878679611
 C         -8.7589780785        4.2993379118        9.5771094389
 C         -7.7677055131        3.2410191614       10.0650431828
 O         -6.5536365828        3.3232242452        9.3370102393
 H         -8.0493171608        4.0694588049        6.4134594744
 H         -7.1936005958        2.1741690751        7.7459278924
 H         -8.3537810514        5.3020980604        9.7761034320
 H         -8.2053850738        2.2403882470        9.9374917729
 H         -5.8260859721        3.2983087603        7.4591173383
 H         -9.7252149722        4.1847933033       10.0684126229
 H         -7.5074789112        3.4025716499       11.1111689171
 H         -7.3502994246        5.2355543982        7.5830805859