142
-211.13372637
 C          2.1378231062       -6.9947644279        2.1499802700
 C          1.7192392248       -7.0953217925        0.6869181977
 C         -4.5703331866        3.9039566117        4.8036710433
 C         -5.1635928505        3.8192392082        3.4011303295
 C         -3.4831897971        5.4180949629       -4.0463931139
 C         -3.5349167406        4.8653285980       -5.4671384544
 C          7.4984197023       -0.9275379962       -1.3673889774
 C          7.4451864080       -1.3803857941       -2.8228586844
 C          2.5436382510       -5.5646122344        2.4862182071
 C          0.5724071459       -6.1348267819        0.3972181111
 C         -3.4700367766        2.8624489852        4.9754059723
 C         -4.0777007635        4.0227097169        2.3507995254
 C         -3.7042057211        4.3018926282       -3.0316583984
 C         -2.4955322480        3.7650505818       -5.6496227887
 C          6.4720983119        0.1702286601       -1.1148952270
 C          6.0445518705       -1.8677766286       -3.1751584316
 C          0.5103287481       -0.0552737608        3.4497246162
 C         -1.0760177502       -0.6959263409       -0.9870465751
 C          0.9653578851        1.5401443427        0.2433776085
 C          0.4595755634       -0.1404852313       -4.2685403905
 C          2.7943579894       -0.5945354834        2.8971083244
 C         -2.4622599363       -2.1911348430        0.2914422608
 C          2.1665973426        1.6899891630        3.3709056929
 C         -3.3797730408       -0.1282361263       -0.5744206155
 C          0.2808717109        3.8086948704       -0.1858570343
 C         -1.2111237832       -1.8661139054       -4.0882749582
 C          2.3672381235        2.9791996937       -1.0831725036
 C          1.1101283163       -2.3769131080       -3.6548006181
 C          1.0755341416       -2.3861962474        2.9121049482
 C         -0.0914386142       -2.7809621174       -0.1132916318
 C         -0.1756277532        2.3059216679        3.7937794026
 C         -1.9610744850        1.3984103003       -1.9200680127
 C         -1.1602203617        2.3349940767        1.1929831603
 C         -1.9283362394        0.4468493010       -4.5428552957
 C          3.0921397157        0.6520705772       -0.6332586179
 C          2.8248766024       -0.5892678645       -3.7438532790
 C          1.4723070805       -0.9972326355        3.1004340671
 C         -1.2249181285       -1.8817690279       -0.2743696252
 C          0.8449653374        1.2918930812        3.5762675114
 C         -2.1450599592        0.1828717723       -1.1430713281
 C          0.0370579228        2.5664371920        0.3985872113
 C         -0.8752062334       -0.5365428845       -4.3398335890
 C          2.1324011743        1.7381531284       -0.4884549100
 C          1.4514257786       -1.0461978873       -3.9107572232
 C          3.1165167456        0.7397356459        3.0421789360
 C         -3.5106967682       -1.3062065404        0.1368564411
 C          1.4370954510        3.9881645846       -0.9226104455
 C         -0.2104572586       -2.7633917005       -3.7596121717
 C          1.4048192538       -4.5854046400        2.2043137197
 C          0.9652238056       -4.6918600406        0.7207536823
 C         -2.3621068429        3.0652725581        3.9454452766
 C         -2.9620377320        2.9929580494        2.5022568509
 C         -2.6607409700        3.2017256866       -3.1957358727
 C         -2.7173389371        2.6314966504       -4.6517442414
 C          5.0594486812       -0.3101998654       -1.4539172544
 C          5.0050644761       -0.7742469467       -2.9322414213
 Br         4.9190495596        1.3005805500        2.7474108945
 Br        -5.1903178959       -1.7177491943        0.9352774364
 Br         1.7510652469        5.6811589735       -1.7502566167
 Br        -0.6805415885       -4.5803460595       -3.4047239707
 N          1.8654980503       -3.2482823656        2.4323507470
 N         -0.1761322963       -3.8513172644        0.5486311716
 N         -1.3905971524        2.0233313464        4.0148428464
 N         -2.9276770495        2.1187492866       -2.3039957391
 N         -1.8993067088        3.2803995371        1.5929887942
 N         -1.6696037137        1.6711618124       -4.7336700582
 N          4.1494026832        0.7808209005       -1.3086411375
 N          3.6950502315       -1.3005549429       -3.1684397591
 H          1.3048527960       -7.2967297966        2.7887859472
 H          2.9751234206       -7.6660659968        2.3478018853
 H          1.4039310941       -8.1137753996        0.4551334323
 H          2.5692165023       -6.8514643452        0.0459077402
 H         -4.1575290243        4.9021017957        4.9660667387
 H         -5.3483435773        3.7349899803        5.5496827301
 H         -5.6262491288        2.8398909171        3.2603058364
 H         -5.9365655601        4.5789045570        3.2752434467
 H         -2.5089468179        5.8799047822       -3.8709279040
 H         -4.2482772036        6.1850007784       -3.9158445615
 H         -3.3467160017        5.6644174346       -6.1859085264
 H         -4.5302368924        4.4608004432       -5.6649746983
 H          8.4942990288       -0.5522164318       -1.1270190145
 H          7.2912039207       -1.7767850217       -0.7125756127
 H          8.1629297135       -2.1848540748       -2.9919010695
 H          7.7142850595       -0.5457293420       -3.4739859009
 H          2.8197449059       -5.4831256872        3.5394654832
 H          3.4070836678       -5.2673254597        1.8886853284
 H          0.2830900983       -6.1890344921       -0.6539789498
 H         -0.2995934258       -6.3956011194        0.9990287433
 H         -3.8830574389        1.8605525378        4.8538486188
 H         -3.0321681732        2.9293346361        5.9733594534
 H         -3.6412428305        5.0184629938        2.4440683659
 H         -4.4974090840        3.9305263220        1.3474935159
 H         -4.6945637845        3.8618970093       -3.1592680414
 H         -3.6368248419        4.6933582381       -2.0150862933
 H         -1.4910292874        4.1645568511       -5.5009641266
 H         -2.5491621901        3.3538506803       -6.6597727290
 H          6.6935547928        1.0439874851       -1.7296899561
 H          6.4934590882        0.4811515863       -0.0687022914
 H          5.7815902295       -2.7338749402       -2.5654277705
 H          5.9967006158       -2.1673195218       -4.2241346753
 H         -0.5142664717       -0.3586608545        3.5915449548
 H         -0.1223574544       -0.4555788542       -1.4355364953
 H          0.7786477165        0.5822656503        0.7076547056
 H          0.6976058935        0.8934290389       -4.4650458017
 H          3.5324551696       -1.3332095961        2.6283880700
 H         -2.5696649842       -3.1126124299        0.8383109649
 H          2.4421186530        2.7302232306        3.4589528316
 H         -4.2015010700        0.5587871124       -0.6995224887
 H         -0.4401346106        4.5994088085       -0.0546867615
 H         -2.2405714365       -2.1875794800       -4.1383905451
 H          3.2725366024        3.1228580159       -1.6506561645
 H          1.8863060410       -3.0722850198       -3.3781692624
 H          0.0411247454       -2.6195552226        3.1913773897
 H          0.8408568550       -2.4629851075       -0.6072173545
 H          0.1684934272        3.3470305352        3.7044873937
 H         -0.9166450966        1.6418053515       -2.1651466165
 H         -1.3691772849        1.2820047053        1.4323319422
 H         -2.9589107443        0.0710192109       -4.4623008078
 H          2.8328453711       -0.2826043404       -0.1106243917
 H          3.0407342840        0.4219408905       -4.1155989793
 H          0.5226365030       -4.8223401613        2.8227042197
 H          1.8131398720       -4.3696821229        0.0905729460
 H         -1.9047913127        4.0635391715        4.0590133065
 H         -3.3485703606        1.9690788182        2.3693740787
 H         -1.6432767876        3.6017796312       -3.0537775788
 H         -3.7131380323        2.1751074052       -4.7887402722
 H          4.7781989239       -1.1674716158       -0.8168850722
 H          5.2106011780        0.1076654569       -3.5623338299
 C         -2.9167889235       -1.4118852862        5.8694799544
 C         -3.1127204438       -1.0557776613        4.3956340618
 O         -3.2867562703       -2.7578191832        6.1173949960
 C         -2.5550703012       -3.6406497982        5.2860263934
 C         -2.7631744347       -3.2871616522        3.8131009947
 O         -2.3749897433       -1.9439763885        3.5669735770
 H         -3.5558402603       -0.7990401844        6.5046141172
 H         -4.1787808451       -1.1225817132        4.1371848732
 H         -1.4849922505       -3.5770355865        5.5356338317
 H         -3.8223466601       -3.4158882918        3.5507193209
 H         -2.7309174356       -0.0537003489        4.1906873782
 H         -2.9267323598       -4.6425298837        5.5013844302
 H         -2.1406087785       -3.9102600076        3.1695241160
 H         -1.8630592619       -1.2615788399        6.1473012177