142
-211.12683741
 C          1.5798306480       -4.5696275829       -4.9389374193
 C          0.9432877658       -5.7619582617       -4.2321559187
 C          0.0596551182        7.5074655021        2.6457903375
 C          1.0024430608        8.2331743609        1.6912052795
 C         -6.5603581985        1.3314284158        3.4809480828
 C         -6.0329072843        2.5651058111        2.7553395789
 C          7.9247341216       -2.6063710375        1.1161205041
 C          6.9810791746       -3.4118268112        2.0033488026
 C          0.8384118472       -3.2856240906       -4.5870281762
 C          0.9399854067       -5.5437964050       -2.7235428937
 C         -0.7049309965        6.4127658344        1.9099777659
 C          1.9703887087        7.2479762110        1.0457394142
 C         -5.7455929821        0.1002766095        3.1007007170
 C         -4.5583089779        2.7821146777        3.0759470402
 C          7.1356546018       -1.8426401062        0.0589447155
 C          5.9566097943       -2.4946389496        2.6602032292
 C          0.2081388747        1.1643962075       -0.8603292836
 C         -1.6138077234       -2.5132707525        1.7090183789
 C          3.5278661104        2.7971821066       -0.8436459475
 C          0.8115290024        0.2295876424        2.2358949911
 C         -1.5992480666        0.3487332006       -2.2250969702
 C          0.5237522124       -3.6132762943        1.8560493073
 C         -1.8199848279        2.4495070045       -1.0481952856
 C         -0.3812011717       -2.4614142620        3.7777049158
 C          2.2812174901        2.7633012720       -2.9041497571
 C          0.3910601479        1.9934308484        3.8208405040
 C          3.7683656059        0.9390040229       -2.3569256839
 C          2.6120392644        1.0636544491        3.5986992687
 C          0.4874516102       -0.9774160139       -2.0498312353
 C         -0.6940618942       -3.5969610500       -0.3034325345
 C          0.0428035812        3.2951208689        0.3543767439
 C         -2.4804853755       -1.1819047989        3.6057267567
 C          1.8836073777        4.5888906546       -1.2962881264
 C         -1.4675297756        1.1330809269        2.4222049590
 C          4.9873698619        0.9213328123       -0.1975458239
 C          3.0550206300       -0.7616658321        1.9813501557
 C         -0.3106778766        0.1929562176       -1.7109769209
 C         -0.6017460549       -3.2540006837        1.1096970546
 C         -0.5379795143        2.2910137761       -0.5232630436
 C         -1.5032037062       -2.0966020968        3.0348147760
 C          2.6044435940        3.3917063447       -1.7023008490
 C         -0.0712491718        1.1279875822        2.8301468552
 C          4.0989619590        1.5685285008       -1.1539081860
 C          2.1497051982        0.1869947506        2.6154829818
 C         -2.3283054059        1.4714559838       -1.8830181240
 C          0.6070155723       -3.2207166052        3.1764631139
 C          2.8763828088        1.5527937457       -3.2126525122
 C          1.7255349870        1.9496933642        4.1801680366
 C          0.8371963136       -3.0492867594       -3.0753194788
 C          0.1927585901       -4.2623165793       -2.3563898448
 C          0.2540243538        5.4125842043        1.2725802315
 C          1.2185644336        6.1555130062        0.2897863587
 C         -4.2685335902        0.2958496536        3.4326287846
 C         -3.7302711745        1.5617290584        2.6868423056
 C          6.1097972166       -0.9130004029        0.7058893673
 C          5.1500795836       -1.7302790863        1.6083108794
 Br        -4.0975224530        1.6761161697       -2.5748270756
 Br         2.1477171393       -3.7050354829        4.1974738788
 Br         2.4171996092        0.6911850386       -4.8551638122
 Br         2.3626400759        3.1604127697        5.5141041097
 N          0.0408096961       -1.9001411093       -2.7842988285
 N          0.3005014514       -4.0332037807       -0.9474757912
 N         -0.4658980359        4.4426863292        0.5111246594
 N         -3.4927767642       -0.7962332704        2.9509470017
 N          2.1183159556        5.1638209504       -0.1932868193
 N         -2.3674138716        1.7365578550        3.0750611984
 N          5.3178157059       -0.2918906584       -0.3120451238
 N          4.2824866598       -0.8068710508        2.2672884440
 H          2.6253660017       -4.4805562466       -4.6359073546
 H          1.5538758764       -4.7162808745       -6.0197833158
 H          1.4941549286       -6.6745014457       -4.4661006535
 H         -0.0832027328       -5.8880135414       -4.5835086639
 H          0.6370125900        7.0624198977        3.4593266891
 H         -0.6475504840        8.2147444865        3.0819195116
 H          0.4202660840        8.7326966373        0.9134030634
 H          1.5672244844        8.9947848806        2.2312073679
 H         -6.4982500899        1.4888634376        4.5602010908
 H         -7.6079015051        1.1662024021        3.2240342271
 H         -6.6032965054        3.4462146257        3.0534389450
 H         -6.1541209925        2.4331805824        1.6777857267
 H          8.6385083792       -3.2713213764        0.6269650424
 H          8.4877860538       -1.9000507512        1.7302409436
 H          7.5467529412       -3.9331377971        2.7770884831
 H          6.4640338149       -4.1618778027        1.4008909921
 H          1.3059986487       -2.4275186186       -5.0735938114
 H         -0.1971319213       -3.3414955910       -4.9260702508
 H          0.4608317785       -6.3841719509       -2.2170366409
 H          1.9627424942       -5.4648236636       -2.3510626948
 H         -1.3272501614        6.8449483190        1.1247389904
 H         -1.3570996614        5.8746339277        2.6001610116
 H          2.5927383234        6.7749120894        1.8070821855
 H          2.6290871227        7.7648135638        0.3447630624
 H         -5.8357031375       -0.0979138149        2.0314332474
 H         -6.1087715237       -0.7779458241        3.6384876321
 H         -4.4238166075        2.9659790124        4.1430846563
 H         -4.1744073848        3.6475964871        2.5329306398
 H          6.6061741100       -2.5389546493       -0.5935578097
 H          7.8067653508       -1.2442919260       -0.5607021199
 H          6.4560074019       -1.7685322302        3.3035037226
 H          5.2657233116       -3.0719419084        3.2775144757
 H          1.2061099992        1.0506607174       -0.4612484996
 H         -2.4892986699       -2.2184078240        1.1515541706
 H          3.7623091609        3.2994864944        0.0820564147
 H          0.4472229704       -0.4480366108        1.4767887911
 H         -1.9939823880       -0.4099510967       -2.8814657879
 H          1.3039516699       -4.1875270405        1.3826708177
 H         -2.3877332729        3.3278448425       -0.7864268551
 H         -0.2806500595       -2.1453305489        4.8051167054
 H          1.5670219539        3.2105913365       -3.5790163657
 H         -0.3011012286        2.6809609613        4.2796462806
 H          4.2157027985       -0.0141703047       -2.5890839950
 H          3.6507910160        1.0255065590        3.8846317274
 H          1.5028585688       -0.9989724611       -1.6229821090
 H         -1.6701514681       -3.4181817272       -0.7752548840
 H          0.9661242276        2.9885748804        0.8677809144
 H         -2.2555150619       -0.8053144036        4.6143442577
 H          1.0885258383        4.9266714884       -1.9770526665
 H         -1.6888758179        0.5646234898        1.5068428806
 H          5.3187576756        1.5458449732        0.6436344111
 H          2.5944117627       -1.4338802361        1.2399319123
 H          1.8699400165       -2.9392536770       -2.6997579260
 H         -0.8599600940       -4.3172147636       -2.6816737539
 H          0.8897701245        4.9367414736        2.0372791158
 H          0.6003765785        6.5872728451       -0.5164229417
 H         -4.1262529394        0.4645050573        4.5142425604
 H         -3.8212397289        1.3535533338        1.6080785724
 H          6.6088004030       -0.1663175695        1.3466758652
 H          4.5906065204       -2.4317171499        0.9643885112
 C         -8.6467661389       -4.6784233071       -7.4770659828
 C        -10.1573548516       -4.5287579492       -7.2864072620
 O         -8.2119689122       -5.9524905188       -7.0313330876
 C         -8.9051979545       -6.9836523208       -7.7141203836
 C        -10.4158576642       -6.8339762408       -7.5233707191
 O        -10.8506400413       -5.5602688635       -7.9689583492
 H         -8.1038991228       -3.9448696650       -6.8809776673
 H        -10.3988191879       -4.5709097204       -6.2144872284
 H         -8.6640642610       -6.9411580459       -8.7861295435
 H        -10.6661184231       -6.9561057111       -6.4595860361
 H        -10.5127471720       -3.5897637240       -7.7107912002
 H         -8.5497970659       -7.9228652399       -7.2900085518
 H        -10.9588198723       -7.5673756378       -8.1195929985
 H         -8.3965651832       -4.5565526437       -8.5408542634