142
-211.12794700
 C          4.9946428948       -5.7922239779        3.4933759045
 C          4.0973498019       -6.4890222038        2.4755943081
 C         -3.5440312559        3.4370304279        6.3779064072
 C         -4.5228524047        2.7306299395        5.4453424178
 C         -6.3591431344        2.1123853450       -2.2238494198
 C         -6.7286374698        1.0884572811       -3.2924644677
 C          6.2768764916       -0.3855829590       -3.4346827171
 C          5.8600497177       -1.3476330769       -4.5425787726
 C          4.9936309936       -4.2860815988        3.2584930825
 C          2.6790494107       -5.9366872133        2.5509581099
 C         -2.1454943382        2.8491897470        6.2272244523
 C         -4.0525476880        2.8372745465        3.9990131347
 C         -5.8083108786        1.4144768709       -0.9853378237
 C         -5.5187805600        0.2343487895       -3.6545398004
 C          5.0970897176        0.4807438180       -3.0103979439
 C          4.6954073603       -2.2164060026       -4.0813478510
 C          1.7715486434        0.6811615591        3.8108600838
 C         -1.0876193817       -1.8447082838        0.7913111433
 C          0.4023237901        1.0201161658        0.4062046499
 C         -1.1311816416       -2.2127737149       -2.8797824014
 C          3.6831740799        0.4415836888        2.3652852070
 C         -1.3017511286       -2.9677638122        2.9096335192
 C          2.5123705353        2.5516947412        2.4864730692
 C         -3.1229657486       -1.6232505122        2.0593088842
 C         -1.1759149459        2.7455767138       -0.1686921730
 C         -1.9215791033       -4.0593078277       -1.5505880189
 C          0.5702171694        2.1289181258       -1.7239957847
 C          0.4218663563       -3.8867260203       -2.1135333542
 C          2.8739570731       -1.5166929767        3.6520651613
 C          0.7934428767       -3.2129966535        1.6066457411
 C          0.4520827095        2.7743882442        3.8197029871
 C         -2.9048741871       -0.4656179360       -0.1235678394
 C         -1.3506435575        1.6068088857        2.0273564237
 C         -3.5002959458       -2.2709024353       -2.1692631231
 C          2.2094222488        0.3636415102       -1.1359521127
 C          1.2608096083       -1.9413407017       -3.4015263011
 C          2.7879309613       -0.1088690780        3.2863881126
 C         -0.5488392037       -2.6723459715        1.7717540331
 C          1.6142978441        2.0047361977        3.4020160773
 C         -2.3686116708       -1.3157959490        0.9276757583
 C         -0.7076816042        1.7936394367        0.7359835929
 C         -2.1775386139       -2.8735862593       -2.2379473724
 C          1.0495945018        1.1840807498       -0.8148268062
 C          0.1683357131       -2.7009225060       -2.8080239921
 C          3.5355960600        1.7620748079        1.9924750792
 C         -2.5717215149       -2.4371373566        3.0317234494
 C         -0.5334884737        2.8876706310       -1.3847129209
 C         -0.6277820804       -4.5481543189       -1.5091140362
 C          3.5766253467       -3.7193654684        3.3384754555
 C          2.6654569630       -4.4268721694        2.3030262850
 C         -1.6540992138        2.9685978399        4.7869760686
 C         -2.6583873096        2.2411588042        3.8332772285
 C         -4.5867541463        0.5706946489       -1.3347709334
 C         -4.9673866581       -0.4842294076       -2.4257314920
 C          3.9287732864       -0.3832839670       -2.5312121074
 C          3.5039738609       -1.3573242413       -3.6599577759
 Br         4.7535226227        2.5151504827        0.7274541326
 Br        -3.5954792726       -2.8287881523        4.5968220303
 Br        -1.2055259683        4.1640196705       -2.6380830805
 Br        -0.2827860737       -6.1656052829       -0.5520668160
 N          3.5997159392       -2.3262404600        3.0100484808
 N          1.3367811194       -3.9357949949        2.4857814574
 N         -0.4075459561        2.3016614490        4.6194792670
 N         -4.1270146960       -0.1455957434       -0.1880792498
 N         -2.1899459588        2.4281860349        2.4972135704
 N         -3.7608474372       -1.1713276597       -2.7396402532
 N          2.8123271059        0.4584877506       -2.2396749868
 N          2.4687780789       -2.1964536912       -3.1367985947
 H          4.6329055967       -6.0030102271        4.5022129972
 H          6.0149958693       -6.1713071044        3.4151014426
 H          4.0767475467       -7.5630468673        2.6665876729
 H          4.4951776802       -6.3331066189        1.4704385961
 H         -3.5174835466        4.5027751308        6.1392338905
 H         -3.8720301243        3.3314803305        7.4132207154
 H         -4.5971686643        1.6775154977        5.7257506322
 H         -5.5149097912        3.1752181181        5.5387983497
 H         -5.6051947552        2.7962027526       -2.6202881583
 H         -7.2368982705        2.6999670366       -1.9502447530
 H         -7.0936276760        1.5966779557       -4.1863909069
 H         -7.5288415613        0.4449795853       -2.9195629840
 H          7.0891936123        0.2555254937       -3.7804746548
 H          6.6386660671       -0.9532626110       -2.5745960088
 H          6.7007882110       -1.9852394765       -4.8210625245
 H          5.5613058775       -0.7784803786       -5.4256698213
 H          5.6133464740       -3.7828656072        4.0035581308
 H          5.4006605518       -4.0573782359        2.2720589031
 H          2.0403713161       -6.4181168734        1.8079768095
 H          2.2505155981       -6.1265653026        3.5362328702
 H         -2.1462804872        1.7941045115        6.5056701882
 H         -1.4408357975        3.3698389158        6.8789534780
 H         -4.0221169281        3.8817428130        3.6845852925
 H         -4.7371698409        2.3049595977        3.3362322905
 H         -6.5659064834        0.7628661027       -0.5469888158
 H         -5.5180077936        2.1487968948       -0.2318325631
 H         -4.7274460549        0.8575763754       -4.0741651138
 H         -5.7908371623       -0.5141914829       -4.4015761382
 H          4.7532475966        1.0892343104       -3.8482022259
 H          5.3878114253        1.1544183777       -2.2021480785
 H          4.9956784795       -2.8301638747       -3.2303843171
 H          4.3770351748       -2.8854636831       -4.8834501704
 H          1.0645465517        0.2770108776        4.5186909427
 H         -0.5100550673       -1.6140572981       -0.0926306646
 H          0.7686182168        0.2897575748        1.1136339518
 H         -1.3508629831       -1.2961404839       -3.4048427610
 H          4.4683176813       -0.1788120157        1.9637962310
 H         -0.8757755996       -3.6074656679        3.6656541258
 H          2.4028774729        3.5747276597        2.1593886713
 H         -4.1159338858       -1.2140263210        2.1533393937
 H         -2.0325539693        3.3435512033        0.0973339055
 H         -2.7212464689       -4.5819595497       -1.0476540738
 H          1.0749821079        2.2464214459       -2.6692926493
 H          1.4329888606       -4.2576418946       -2.0627290074
 H          2.2416386979       -1.8309333240        4.4939407277
 H          1.2975947334       -2.9485823455        0.6634062081
 H          0.3380420249        3.7643130723        3.3540081573
 H         -2.1701141777       -0.1249731553       -0.8678876886
 H         -1.0473908412        0.7012915467        2.5732870507
 H         -4.2375669891       -2.7977747227       -1.5458941925
 H          2.5223755891       -0.3415492667       -0.3495263316
 H          0.9636976272       -1.1140725286       -4.0607715658
 H          3.1408446479       -3.8959861001        4.3364680801
 H          3.0525024232       -4.1972774910        1.2944144852
 H         -1.6071053721        4.0259707540        4.4731019719
 H         -2.6499087334        1.1769140511        4.1203527095
 H         -3.7889229066        1.1962456021       -1.7674884833
 H         -5.7270689647       -1.1540889701       -1.9865841792
 H          4.2278148831       -0.9856618778       -1.6551454739
 H          3.1448637305       -0.7459224670       -4.5050934452
 C          0.7214460840        6.3233469083       -6.7783182439
 C          0.4778431069        7.3892340125       -5.7082825493
 O          0.0802726608        6.6771735840       -7.9927629384
 C          0.5221770780        7.9475202663       -8.4401824355
 C          0.2728592879        9.0116709220       -7.3694509119
 O          0.9199270473        8.6594041916       -6.1584489906
 H          0.2951422141        5.3670732599       -6.4759421329
 H         -0.5947670107        7.4339890061       -5.4717476822
 H          1.5967559739        7.9030293513       -8.6701420756
 H         -0.8081430443        9.1096620362       -7.1935000469
 H          1.0465321574        7.1703396229       -4.8047647006
 H         -0.0432066388        8.1656198007       -9.3463637044
 H          0.6898427676        9.9729469044       -7.6702027128
 H          1.8020683343        6.2164273457       -6.9522649733