142
-211.12694292
 C          3.1910027645       -7.0196315779        3.7140995394
 C          2.1196799382       -7.3834138745        2.6914148600
 C         -2.6761699648        4.2385521711        5.8151528374
 C         -3.7382564106        3.9508094215        4.7587345545
 C         -5.7041601346        3.7951728034       -1.6171471059
 C         -6.2189632238        2.8845926659       -2.7266183890
 C          6.3785543721       -0.1368141831       -3.0368760021
 C          5.9831989373       -1.2117404437       -4.0432189323
 C          3.6630614361       -5.5866872464        3.4978812471
 C          0.9462080013       -6.4161632944        2.7851814593
 C         -1.5264044278        3.2439282453        5.7015517476
 C         -3.1286754247        4.0075884194        3.3613362752
 C         -5.2602451125        2.9687480785       -0.4157083356
 C         -5.1407843839        1.8878889812       -3.1353001378
 C          5.2506518498        0.8733712867       -2.8700316687
 C          4.7074633284       -1.9108872007       -3.5899356626
 C          1.8552937689        0.1160149676        3.7094603611
 C         -1.2736587949       -1.1812111459        1.2964816269
 C          0.3101869403        2.4723982464       -0.2494116756
 C         -1.1359886841       -1.1589060388       -2.5766442783
 C          3.8497390770       -0.6609307443        2.6045170390
 C         -1.8320785362       -2.3275093595        3.3393097081
 C          3.2432512027        1.6780296581        2.5124922285
 C         -3.2206033153       -0.5162302556        2.5484302219
 C         -1.0226208788        4.1229896257       -1.3902842107
 C         -2.1771253548       -2.9978473170       -1.4202369870
 C          0.7345997634        2.9549981388       -2.5691660211
 C          0.1608136861       -3.1107438727       -2.0227283711
 C          2.3884945722       -2.2828581071        3.7823315718
 C          0.1093428683       -3.1004535350        2.0162500409
 C          1.1461734808        2.4771382184        3.5439838370
 C         -2.7133142953        0.6111034609        0.4057228810
 C         -1.5103182828        3.6236109016        0.9797659988
 C         -3.4829048334       -0.9458429878       -1.8265725049
 C          2.1416488380        1.2839960101       -1.4113479261
 C          1.2543260821       -1.1983357406       -3.1664060069
 C          2.7127969248       -0.9235887567        3.3728732200
 C         -1.0049617181       -2.1844081270        2.2237708669
 C          2.1019206332        1.4145591270        3.2688597931
 C         -2.3899515527       -0.3612975761        1.4392873552
 C         -0.7244675883        3.4080663450       -0.2321040887
 C         -2.2602891038       -1.7206752322       -1.9735671643
 C          1.0484984386        2.2476554364       -1.4054500851
 C          0.0766474323       -1.8368388875       -2.5897997640
 C          4.0987097925        0.6353222499        2.2012817535
 C         -2.9123324900       -1.4805767264        3.4889522344
 C         -0.2935321840        3.8727880896       -2.5398322027
 C         -0.9703887212       -3.6730078035       -1.4656065196
 C          2.5010707394       -4.6009043225        3.5941134134
 C          1.3997657881       -4.9738250150        2.5600829017
 C         -0.9050893357        3.2777456637        4.3058862487
 C         -1.9958026014        2.9894309058        3.2370801393
 C         -4.1760778918        1.9656735578       -0.8003895156
 C         -4.6937882684        1.0397636717       -1.9466067154
 C          3.9572348317        0.1947615400       -2.4133836674
 C          3.5595533252       -0.9171879022       -3.4203153822
 Br         5.6644783884        1.0051918500        1.1663392005
 Br        -4.0239928341       -1.6511997438        5.0329229745
 Br        -0.7282223059        4.8304741803       -4.1308312630
 Br        -0.8673814636       -5.4264170186       -0.7174662087
 N          2.9555987001       -3.2862285907        3.2643806158
 N          0.2940722792       -4.0971218209        2.7696397955
 N          0.0829626763        2.2537281750        4.1855517374
 N         -3.8622864313        1.1349227951        0.3198334897
 N         -1.3249496863        2.8800356406        1.9807611109
 N         -3.5890393649        0.2184422959       -2.3102791201
 N          2.9085080351        1.1626431931       -2.4060587586
 N          2.4189451248       -1.6077772081       -2.8947930579
 H          2.7814339329       -7.1196821372        4.7218293707
 H          4.0400268379       -7.6996794535        3.6263223480
 H          1.7646152068       -8.4004478091        2.8648085383
 H          2.5435083373       -7.3416130586        1.6858152770
 H         -2.2942522950        5.2539044854        5.6817721129
 H         -3.1154039238        4.1735745583        6.8117474616
 H         -4.1620802190        2.9592169185        4.9297607263
 H         -4.5467256927        4.6806439045        4.8341114713
 H         -4.8604043373        4.3785076417       -1.9925491944
 H         -6.4862392778        4.4918956118       -1.3107593083
 H         -6.5106172044        3.4794171373       -3.5936168190
 H         -7.1004266158        2.3438147323       -2.3751067507
 H          7.2787536813        0.3806412913       -3.3718751827
 H          6.5956292447       -0.5982507988       -2.0716066171
 H          6.7849002671       -1.9452626298       -4.1427891201
 H          5.8204373900       -0.7539745310       -5.0216848677
 H          4.4123274576       -5.3147141990        4.2441396552
 H          4.1180137351       -5.4846024464        2.5112930040
 H          0.1906493567       -6.6610938425        2.0365280828
 H          0.4806340537       -6.4792204079        3.7698931847
 H         -1.8829737387        2.2308130048        5.8926561001
 H         -0.7512193494        3.4728951095        6.4356302820
 H         -2.7410017992        5.0126972662        3.1734018923
 H         -3.8902760443        3.7820293159        2.6107506708
 H         -6.1061059149        2.4175781162       -0.0017469608
 H         -4.8683165794        3.6182540964        0.3695405921
 H         -4.2700167207        2.4136300099       -3.5304210302
 H         -5.5137418602        1.2215297358       -3.9156973901
 H          5.0555961359        1.3816939821       -3.8157465063
 H          5.5259592555        1.6261686480       -2.1291089815
 H          4.8719276534       -2.4096396679       -2.6333731447
 H          4.4066751744       -2.6679824652       -4.3168719721
 H          0.9675547715       -0.0626273303        4.2947657120
 H         -0.6293006404       -1.0572798138        0.4377595241
 H          0.5209358355        1.9317157000        0.6612509618
 H         -1.2162981921       -0.1724204889       -3.0055506630
 H          4.5066625562       -1.4753063684        2.3441110258
 H         -1.6118982569       -3.1031055374        4.0550534506
 H          3.4525319470        2.6798922158        2.1676776969
 H         -4.0882289947        0.1165479593        2.6446604087
 H         -1.8172193559        4.8543146514       -1.3921043107
 H         -3.0411716211       -3.4493670821       -0.9564508518
 H          1.2912273561        2.7542365712       -3.4687949261
 H          1.1067110683       -3.6283900430       -2.0355043954
 H          1.6020223500       -2.3747187364        4.5438239858
 H          0.7490461402       -2.8871998857        1.1458356483
 H          1.3896518903        3.4667045573        3.1286724817
 H         -1.9066860540        0.8339535317       -0.3052938818
 H         -2.2478498277        4.4328199056        0.9298383082
 H         -4.2834651083       -1.4118226116       -1.2336941009
 H          2.2617509372        0.6881156838       -0.4927007928
 H          1.0585990787       -0.3388403278       -3.8189747756
 H          2.0351516969       -4.6368653208        4.5928772238
 H          1.8354343095       -4.8543032498        1.5533593065
 H         -0.4861929816        4.2796692883        4.0922076557
 H         -2.3776797995        1.9808945714        3.4402457927
 H         -3.2811244079        2.4783885168       -1.1891636462
 H         -5.5371052590        0.4527718713       -1.5426742997
 H          4.0959317455       -0.2747496930       -1.4239440066
 H          3.3258197699       -0.4185662664       -4.3744027291
 C          1.6804541971        1.5218390266       -6.1763525235
 C          1.5375201527        2.6430647571       -7.2057436960
 O          0.4698981946        1.3472654270       -5.4561763077
 C         -0.6070423415        1.0836451105       -6.3408607145
 C         -0.7413340977        2.2006233890       -7.3770243259
 O          0.4705722278        2.3607908634       -8.0949313322
 H          2.4448264991        1.7610863523       -5.4357651006
 H          1.3452402915        3.5964174217       -6.6934402227
 H         -0.4328073891        0.1251014017       -6.8511568093
 H         -0.9972967512        3.1435368744       -6.8738035306
 H          2.4350454814        2.7244570646       -7.8188855910
 H         -1.5028404597        1.0159889721       -5.7231058605
 H         -1.5045775122        1.9537278782       -8.1148062928
 H          1.9368939541        0.5838282093       -6.6907446414