142
-211.12698549
 C         -0.5016504839       -7.0634088138        1.5875111924
 C         -0.9760298322       -6.9451946663        0.1427197015
 C         -4.2470227054        4.8068308553        5.1071871896
 C         -4.8496560468        4.9721346616        3.7157285267
 C         -2.8610019644        6.7482643820       -3.6883353430
 C         -3.0654968619        6.3208059878       -5.1382204348
 C          6.2328886489       -2.2750036875       -1.7510077360
 C          6.0422282248       -2.6057567573       -3.2276801150
 C          0.2675063550       -5.8125798066        1.9965426553
 C         -1.8433939637       -5.7043614307       -0.0317182845
 C         -3.3910468287        3.5469219651        5.1704646842
 C         -3.7499496616        5.0227520602        2.6609216901
 C         -3.3480195105        5.6595849663       -2.7385575089
 C         -2.3397621130        5.0089277459       -5.4147813718
 C          5.5125183943       -0.9789649060       -1.3994469079
 C          4.5582749472       -2.7125676446       -3.5595132179
 C         -0.2506884440       -0.0651409089        3.4312289985
 C         -2.0517527773        0.0416276486       -1.0584242293
 C          0.5378428850        1.5912827007        0.2339369092
 C         -0.4406093556        0.4108837681       -4.3615305597
 C          1.7899624832       -1.1309163843        2.7226021797
 C         -3.7462017964       -1.1124933858        0.2029341755
 C          1.7876654026        1.2126710180        3.3093987478
 C         -4.1228007695        1.1570314519       -0.5415071009
 C          0.4108312715        3.9805583134       -0.0392663073
 C         -2.4865586625       -0.8537021548       -4.2320783906
 C          2.2139411535        2.7347895605       -1.0612107081
 C         -0.3600189696       -1.9522421899       -3.9025858922
 C         -0.3153831485       -2.4364082565        2.7588616594
 C         -1.6229230417       -2.2750318709       -0.3309114560
 C         -0.3118025605        2.3688741688        3.8783611767
 C         -2.3823510124        2.3461955927       -1.8483027140
 C         -1.3126738882        2.8051463897        1.3033133088
 C         -2.6100159161        1.5893206576       -4.5278415959
 C          2.3652582307        0.2772007425       -0.7715450884
 C          1.7457465806       -0.6448416557       -3.9423409067
 C          0.4202276867       -1.2001821137        2.9909912558
 C         -2.4862491646       -1.1037261416       -0.3977296534
 C          0.4204088343        1.1485499211        3.5748737124
 C         -2.8600554342        1.1730117696       -1.1332501645
 C         -0.1117336560        2.7978402299        0.4823380406
 C         -1.8329471258        0.3642579524       -4.4145681583
 C          1.7007757104        1.5504324076       -0.5291903151
 C          0.2990047815       -0.7343146824       -4.0902564150
 C          2.4484760276        0.0689615013        2.8975986154
 C         -4.5383061463        0.0169491027        0.1209698849
 C          1.5587736905        3.9246655280       -0.8082363752
 C         -1.7368331181       -1.9908074468       -3.9882022346
 C         -0.5932063924       -4.5603980287        1.8320951479
 C         -1.0783741280       -4.4399227768        0.3644552150
 C         -2.2721227648        3.5933677650        4.1332487346
 C         -2.8901049845        3.7637080066        2.7062896069
 C         -2.6168345363        4.3460664725       -2.9959208036
 C         -2.8291049551        3.9043169591       -4.4816972878
 C          4.0191913848       -1.0772185516       -1.7179864027
 C          3.8253116422       -1.4158147051       -3.2184429332
 Br         4.3200640352        0.1667796531        2.5279637549
 Br        -6.2562176322        0.0091529295        0.9577512718
 Br         2.2519905703        5.5428104648       -1.5512766334
 Br        -2.6408519842       -3.6534819690       -3.7250483701
 N          0.1936752801       -3.4003609321        2.1216946945
 N         -1.9602381400       -3.3189282344        0.2911167032
 N         -1.5573398624        2.3622618251        4.1035597777
 N         -3.1391621551        3.3093756923       -2.1641475897
 N         -1.8040557767        3.8665915084        1.7846439758
 N         -2.0556376595        2.7208435439       -4.6485879877
 N          3.4069211018        0.1903537573       -1.4771603781
 N          2.4215848061       -1.5863922285       -3.4412873855
 H         -1.3646053129       -7.1907056081        2.2448777602
 H          0.1406488538       -7.9383154606        1.7013278207
 H         -1.5506220393       -7.8293656784       -0.1375547943
 H         -0.1114408780       -6.8805764540       -0.5215465617
 H         -3.6301824239        5.6770610884        5.3432334284
 H         -5.0407958188        4.7438317563        5.8532401574
 H         -5.5155005612        4.1320753312        3.5055668852
 H         -5.4392275541        5.8891681163        3.6703488165
 H         -1.7997017470        6.9362084243       -3.5106560221
 H         -3.4049099969        7.6733707235       -3.4911218902
 H         -2.6889537953        7.0921573049       -5.8119178449
 H         -4.1327737315        6.1935532427       -5.3336927369
 H          7.2948901212       -2.1701949035       -1.5238496559
 H          5.8361437314       -3.0887175014       -1.1399729547
 H          6.5372090293       -3.5482230730       -3.4678040469
 H          6.4956378388       -1.8214874975       -3.8379110837
 H          0.5854518946       -5.8830318693        3.0388364741
 H          1.1604885677       -5.6998551993        1.3793547347
 H         -2.1667719172       -5.6055908955       -1.0696729605
 H         -2.7351705787       -5.7752398649        0.5928923378
 H         -4.0025935844        2.6635042542        4.9799896654
 H         -2.9424301328        3.4399393838        6.1602708394
 H         -3.1052566849        5.8878324950        2.8244714748
 H         -4.1840766095        5.1085566664        1.6631221664
 H         -4.4183487375        5.4918003988       -2.8687482878
 H         -3.1759518868        5.9539800489       -1.7017403904
 H         -1.2653720596        5.1327658043       -5.2695285534
 H         -2.5065339351        4.6912530180       -6.4461229142
 H          5.9304405857       -0.1470613374       -1.9683901651
 H          5.6284781523       -0.7522935435       -0.3379377712
 H          4.1019014840       -3.5255025947       -2.9921854736
 H          4.4185071648       -2.9231840799       -4.6217867495
 H         -1.3088633550       -0.0928622275        3.6403225888
 H         -1.0784590994        0.0529795711       -1.5282839466
 H          0.1365385935        0.6779207392        0.6496547876
 H          0.0449782874        1.3638956988       -4.5035648319
 H          2.3011992462       -2.0172978534        2.3827519112
 H         -4.0748578585       -2.0028552258        0.7143078545
 H          2.3206204536        2.1456220279        3.4151295262
 H         -4.7427622216        2.0364785609       -0.6094030559
 H         -0.0947970830        4.9108939781        0.1634359817
 H         -3.5643085983       -0.9052668381       -4.2692049051
 H          3.1131803859        2.6936498496       -1.6544604676
 H          0.2221212940       -2.8350564344       -3.6921714399
 H         -1.3446585777       -2.4601282761        3.1426478351
 H         -0.6605252370       -2.1853210495       -0.8596536332
 H          0.2729946603        3.3000285881        3.8473617076
 H         -1.3131325972        2.3325871050       -2.1063657187
 H         -1.7584759411        1.8164910790        1.4874374458
 H         -3.7009408408        1.4766295636       -4.4441409483
 H          1.8980494589       -0.5994114282       -0.2949244564
 H          2.2003927576        0.3038780184       -4.2594159597
 H         -1.4900963240       -4.6154941102        2.4720827101
 H         -0.1905022329       -4.3069462981       -0.2787401711
 H         -1.6074309070        4.4569217639        4.3100964533
 H         -3.4995695124        2.8647808939        2.5173564651
 H         -1.5301876805        4.4682823401       -2.8561704882
 H         -3.9087282951        3.7203247766       -4.6205351832
 H          3.5485303761       -1.8801531907       -1.1233861683
 H          4.2315812326       -0.5722119241       -3.8018271696
 C          6.5274998547       -6.8494964533        4.6570936071
 C          7.8261067588       -7.6482882818        4.7856025575
 O          6.0213496848       -6.5126327515        5.9383891524
 C          6.9846643441       -5.7819068788        6.6789282800
 C          8.2836566256       -6.5802099291        6.8072177114
 O          8.7894319485       -6.9181401734        5.5265920154
 H          5.7523384950       -7.4407663608        4.1692390922
 H          7.6218003294       -8.6039655456        5.2899884175
 H          7.1882675905       -4.8261506731        6.1745035091
 H          8.0957711217       -7.4987896617        7.3820245495
 H          8.2696477127       -7.8318497194        3.8068707336
 H          6.5419733623       -5.5983333867        7.6581027363
 H          9.0584566449       -5.9883732882        7.2948858492
 H          6.7158891706       -5.9302875315        4.0837282520