142
-211.12746954
 C          4.5214624750       -6.4864297273        2.7309286361
 C          4.2723378914       -6.7917565640        1.2574537419
 C         -5.5689347443        1.4958222085        4.0355584972
 C         -5.9488262317        1.1535464146        2.5984948282
 C         -4.2002407378        3.0287640102       -4.8541878215
 C         -3.9245652663        2.4173492761       -6.2242061966
 C          7.9528463474        0.8957158314       -0.8792419133
 C          8.1852989117        0.3729999337       -2.2931581276
 C          4.4143361278       -4.9876709123        2.9874591848
 C          2.9043450835       -6.2729311427        0.8312704337
 C         -4.1850478702        0.9481257510        4.3656797301
 C         -4.9131089841        1.7103579132        1.6281295445
 C         -4.1469374057        1.9564020754       -3.7717724374
 C         -2.5703818228        1.7170991538       -6.2333347093
 C          6.6005178119        1.5919066357       -0.7854719934
 C          7.0651338445       -0.5785047222       -2.6974396862
 C          0.6375943648       -0.4173783223        3.4543116489
 C         -0.2551672066       -1.7657254601       -1.1144842401
 C          0.8556322418        1.0665521036        0.0916007265
 C          1.3488310421       -0.8910882263       -4.3126495042
 C          3.0032979728       -0.2123351162        3.0499346353
 C         -1.2044462104       -3.5390025638        0.2079635374
 C          1.6330965684        1.7668846008        3.2532228007
 C         -2.6476976503       -1.9592365444       -0.9181588959
 C         -0.5154207895        2.9340934611       -0.5658730023
 C          0.3337003899       -3.0666511593       -4.1176994482
 C          1.8013053585        2.8274793579       -1.2499916632
 C          2.6396780975       -2.7430733724       -3.4729760551
 C          1.9787381638       -2.4655463702        3.1644026018
 C          1.2591683558       -3.3573739799        0.0050095391
 C         -0.8115712572        1.5890437822        3.4956463623
 C         -1.6722830324       -0.1360514273       -2.2882532716
 C         -1.4901887301        1.1269591536        0.8251300891
 C         -1.0595735608       -1.1567777277       -4.8134655225
 C          3.2269378524        0.9181546397       -0.5668613601
 C          3.6682226220       -0.4903921858       -3.5838027160
 C          1.8751425943       -1.0141965379        3.2428445164
 C         -0.0831311728       -2.8848427138       -0.3055301539
 C          0.5043614946        0.9703840585        3.4418873414
 C         -1.5295999177       -1.2968172530       -1.4234012518
 C         -0.3757071647        1.7170114569        0.0999364381
 C          0.2338087687       -1.7164760470       -4.4507809678
 C          1.9478669126        1.6147929202       -0.5739545595
 C          2.5450264622       -1.3903376244       -3.8106437619
 C          2.8630712962        1.1603362707        3.0700974540
 C         -2.4629947307       -3.0631207609       -0.1061941163
 C          0.5737567318        3.4614198120       -1.2348798033
 C          1.5378132911       -3.5562594863       -3.6433948468
 C          3.0438149114       -4.4556285193        2.5701841126
 C          2.7892414915       -4.7664397409        1.0727580697
 C         -3.1338596650        1.5141612098        3.4146212783
 C         -3.5230514677        1.1650930110        1.9398627772
 C         -2.7898889996        1.2603307852       -3.7617276278
 C         -2.5086602856        0.6283403936       -5.1651566506
 C          5.4665677326        0.6425792355       -1.1779474934
 C          5.7037091687        0.1105315488       -2.6147147404
 Br         4.4027660063        2.2588907717        2.8004994819
 Br        -3.9966671894       -3.9491180429        0.6109112433
 Br         0.3692160962        5.1126408268       -2.1745968877
 Br         1.6624599463       -5.4046204043       -3.1758435544
 N          3.0173634304       -3.0328572594        2.7242455750
 N          1.4604363570       -4.3449075000        0.7631165149
 N         -1.8667274484        0.9043048446        3.6369386518
 N         -2.7766294427        0.1993529457       -2.8061155011
 N         -2.5473280979        1.7689815715        1.0900719259
 N         -1.2009706224        0.0714402290       -5.0849816155
 N          4.2340988300        1.3640064172       -1.1811543194
 N          4.6695872926       -0.8379739020       -2.8976486116
 H          3.7849305667       -7.0133884522        3.3415637203
 H          5.5133357909       -6.8350054249        3.0235585604
 H          4.3200298952       -7.8678699504        1.0837897106
 H          5.0464371197       -6.3177959331        0.6499620343
 H         -5.5673658458        2.5805680883        4.1623842078
 H         -6.3007303434        1.0751383057        4.7268506345
 H         -6.0060044463        0.0686885535        2.4851141999
 H         -6.9293727557        1.5695059961        2.3616793314
 H         -3.4528349737        3.7963944558       -4.6411541529
 H         -5.1825731008        3.5036609541       -4.8478291356
 H         -3.9352641356        3.1951868953       -6.9893794903
 H         -4.7082422104        1.6955452633       -6.4656851000
 H          8.7403400446        1.5992850944       -0.6048902771
 H          7.9831477466        0.0637041947       -0.1723268296
 H          9.1423884545       -0.1484779388       -2.3475603587
 H          8.2184781426        1.2127434578       -2.9908625272
 H          4.5654309211       -4.7695704985        4.0466949239
 H          5.1782392903       -4.4521299286        2.4211847811
 H          2.7328330304       -6.4704035901       -0.2285697045
 H          2.1168280300       -6.7721156210        1.3978992097
 H         -4.1774091084       -0.1397650930        4.2821623186
 H         -3.9052906196        1.2104241137        5.3880528607
 H         -4.8796543187        2.7991989800        1.6912645971
 H         -5.1682833229        1.4392128192        0.6021365568
 H         -4.9204710009        1.2056634042       -3.9412905363
 H         -4.3158066281        2.3993086688       -2.7886138174
 H         -1.7716092916        2.4351775197       -6.0407791709
 H         -2.3849122158        1.2590220847       -7.2070605361
 H          6.5717862528        2.4547952449       -1.4525809650
 H          6.4222127290        1.9468046453        0.2313365998
 H          7.0516112948       -1.4479114660       -2.0379235856
 H          7.2151467244       -0.9331170382       -3.7192497956
 H         -0.2486029220       -1.0154307147        3.6000514190
 H          0.6091220375       -1.2569866915       -1.5173637148
 H          0.9635858571        0.1289746148        0.6182704398
 H          1.2493492652        0.1509314330       -4.5744040839
 H          3.9587458923       -0.6846665164        2.8870399684
 H         -1.0616999996       -4.4041042812        0.8352192890
 H          1.5452939823        2.8428385841        3.2397535020
 H         -3.6303106174       -1.5919419851       -1.1669996395
 H         -1.4708276949        3.4332800709       -0.5489805059
 H         -0.5213519253       -3.7180986869       -4.2181379703
 H          2.6521040925        3.2434588074       -1.7650676264
 H          3.5714770120       -3.1212390332       -3.0840336557
 H          1.0876591739       -3.0264032032        3.4785644429
 H          2.0808988983       -2.7957801573       -0.4673346742
 H         -0.8355306380        2.6791694394        3.3507049068
 H         -0.7449714839        0.4268337909       -2.4706534134
 H         -1.3436064913        0.0829173212        1.1388683953
 H         -1.9109714056       -1.8523808273       -4.7811730813
 H          3.2531652366       -0.0190724793        0.0117192275
 H          3.5697322735        0.5147044690       -4.0166808890
 H          2.2418058650       -4.9440931244        3.1491789263
 H          3.5427261098       -4.2202847327        0.4780230913
 H         -3.0860573473        2.6144442306        3.4914496872
 H         -3.5058065482        0.0656771730        1.8615285892
 H         -1.9794759798        1.9839255963       -3.5747551718
 H         -3.2801845044       -0.1412985034       -5.3413228416
 H          5.4333185281       -0.2241076000       -0.4942081908
 H          5.6615192331        0.9759623492       -3.2975630295
 C         -8.0532641405        7.8529990331        6.5900225006
 C         -9.4590891380        7.3610291698        6.2396662385
 O         -7.2795895460        6.8002670682        7.1408973612
 C         -7.2157811425        5.7042901429        6.2438334856
 C         -8.6218142299        5.2126834638        5.8935345328
 O         -9.3940485473        6.2658185344        5.3418945795
 H         -8.0911853638        8.6336057807        7.3498756743
 H         -9.9804758805        7.0534293969        7.1576529365
 H         -6.6942267100        6.0119249919        5.3257769968
 H         -9.1138061838        4.8316004842        6.8000574180
 H        -10.0288737017        8.1390579301        5.7315062927
 H         -6.6465426757        4.9270490137        6.7539692520
 H         -8.5855524337        4.4316223519        5.1341409335
 H         -7.5609881386        8.2353753004        5.6840524198