142
-211.12801427
 C          4.6667406115       -5.9975664867        3.5486020643
 C          3.6700135129       -6.5587687516        2.5397214480
 C         -2.3861949464        4.4181812826        6.5468937437
 C         -3.4820189213        3.8723171884        5.6369343280
 C         -5.5887895790        3.4089654292       -1.9670915055
 C         -6.0979127227        2.4453685534       -3.0343987688
 C          6.5967690704       -0.8025180978       -3.4028198367
 C          6.0276852626       -1.6910473182       -4.5042330403
 C          4.8727366018       -4.5053847748        3.3155152706
 C          2.3429831047       -5.8157272186        2.6348447078
 C         -1.0997330715        3.6193162196        6.3708553379
 C         -3.0305318607        3.9021051552        4.1809921514
 C         -5.1192703371        2.6411751432       -0.7360982617
 C         -5.0120783214        1.4438202415       -3.4093639113
 C          5.5599244880        0.2211646273       -2.9563490561
 C          4.7608306821       -2.3881511414       -4.0217622357
 C          2.3957153807        0.8716596618        3.8925811899
 C         -0.8469270718       -1.2228134732        0.9645053080
 C          1.0314759308        1.4261763592        0.5169112980
 C         -0.9837990322       -1.5731280871       -2.7029273987
 C          4.2368261929        0.3517875703        2.4290504133
 C         -1.1835276793       -2.3322213575        3.0739756278
 C          3.3945251472        2.6122793553        2.5601944663
 C         -2.8155647857       -0.7414155761        2.2654363729
 C         -0.2788724441        3.3686025259       -0.0397058673
 C         -1.9965972557       -3.3005365938       -1.3644870381
 C          1.3411177165        2.5039406835       -1.6131017065
 C          0.3372265483       -3.4497347042       -1.9719938785
 C          3.1626166661       -1.4655113396        3.7265698486
 C          0.8396370624       -2.8464299544        1.7362026669
 C          1.4078001542        3.1410105479        3.9173879344
 C         -2.4745791090        0.3959790162        0.0872285461
 C         -0.5922106898        2.2663646833        2.1602803281
 C         -3.3270277674       -1.3113479865       -1.9522437461
 C          2.7081521532        0.5154101973       -1.0438418960
 C          1.4124627184       -1.6334879306       -3.2724407300
 C          3.2784361224       -0.0602167221        3.3590151969
 C         -0.4128470666       -2.1282038189        1.9279533398
 C          2.4341019121        2.2044537359        3.4849467468
 C         -2.0422631442       -0.5265805835        1.1252542565
 C          0.0524426988        2.3554804356        0.8591875569
 C         -2.0993834657       -2.0872303662       -2.0436350838
 C          1.6839600162        1.4957923433       -0.7103257869
 C          0.2369678418       -2.2363955414       -2.6579080660
 C          4.2839682405        1.6796734043        2.0566306067
 C         -2.3671268537       -1.6345305923        3.2210885705
 C          0.3656188878        3.4173940961       -1.2620716040
 C         -0.7821348912       -3.9633503705       -1.3492176833
 C          3.5501235286       -3.7461316715        3.4143321597
 C          2.5342467506       -4.3172268475        2.3918167254
 C         -0.6256509750        3.6582612282        4.9203685226
 C         -1.7500537657        3.0956432312        3.9898960594
 C         -4.0213771583        1.6469933543       -1.1002228706
 C         -4.5481407428        0.6539530569       -2.1885688208
 C          4.2877299274       -0.4679956978       -2.4586543180
 C          3.7100895441       -1.3709980332       -3.5787004337
 Br         5.5900421621        2.2445992883        0.7818084458
 Br        -3.4130849743       -1.9024325427        4.7976582820
 Br        -0.1166880206        4.7847438176       -2.5063246417
 Br        -0.6466800970       -5.6192147297       -0.4058586345
 N          3.7651366056       -2.3701111617        3.0838989249
 N          1.2890650878       -3.6492272663        2.5987535025
 N          0.4989825794        2.8056731065        4.7319264283
 N         -3.6454569979        0.8724961204        0.0390919156
 N         -1.2843868514        3.2077639937        2.6443914101
 N         -3.4465840584       -0.1853590040       -2.5181491533
 N          3.3076968009        0.5250034993       -2.1533758573
 N          2.5777640271       -2.0578674818       -3.0352446030
 H          4.2898974230       -6.1588660946        4.5610304213
 H          5.6233571549       -6.5149611092        3.4585257538
 H          3.5030968457       -7.6205367251        2.7273300604
 H          4.0737153062       -6.4543441833        1.5302447911
 H         -2.1986268671        5.4665285544        6.3035000981
 H         -2.7055017187        4.3659604794        7.5889805429
 H         -3.7143204184        2.8441730455        5.9235309676
 H         -4.3902736857        4.4666959654        5.7481102505
 H         -4.7572418362        3.9917314320       -2.3697044432
 H         -6.3805589149        4.1035526056       -1.6822061382
 H         -6.4021384222        2.9962769328       -3.9256211831
 H         -6.9708779099        1.9091507919       -2.6552207239
 H          7.4856924945       -0.2818956545       -3.7622638945
 H          6.8892793031       -1.4192308432       -2.5501818759
 H          6.7644071142       -2.4398792165       -4.7998967839
 H          5.7959060602       -1.0814744616       -5.3804470611
 H          5.5661353290       -4.0954463628        4.0527339335
 H          5.2949241076       -4.3329885028        2.3240118531
 H          1.6347470648       -6.2007067216        1.8987464158
 H          1.9044858944       -5.9492310086        3.6249584126
 H         -1.2587906960        2.5777349860        6.6546054503
 H         -0.3092113233        4.0251306558        7.0055273531
 H         -2.8439527391        4.9286360453        3.8613735006
 H         -3.8031884481        3.4821043545        3.5344536432
 H         -5.9502347041        2.0920847666       -0.2903706636
 H         -4.7275681767        3.3292781521        0.0152363865
 H         -4.1501649671        1.9625413511       -3.8315388508
 H         -5.3854864103        0.7430049296       -4.1583150823
 H          5.2926725312        0.8764635432       -3.7867584666
 H          5.9575632729        0.8426719593       -2.1518462838
 H          4.9871021719       -3.0399926995       -3.1762449450
 H          4.3367421584       -3.0037802245       -4.8176819164
 H          1.6436070918        0.5768088669        4.6078676669
 H         -0.2557729114       -1.0626287715        0.0739844021
 H          1.2930878964        0.6482734944        1.2201270814
 H         -1.0845774034       -0.6319480405       -3.2208437757
 H          4.9174263242       -0.3784597478        2.0215644521
 H         -0.8390004095       -3.0337931384        3.8164949598
 H          3.4358724885        3.6406855077        2.2342330737
 H         -3.7420492093       -0.2017770498        2.3787640000
 H         -1.0343708407        4.0865847978        0.2361210886
 H         -2.8514425666       -3.7107284524       -0.8482069472
 H          1.8490187139        2.5486982837       -2.5629752413
 H          1.2880427838       -3.9572690629       -1.9425834319
 H          2.4955166881       -1.6856031564        4.5714196899
 H          1.3626939548       -2.6419243003        0.7883102928
 H          1.4392910260        4.1370362827        3.4516902510
 H         -1.7105502808        0.6431863589       -0.6645753885
 H         -0.4238727642        1.3236783152        2.7015886061
 H         -4.1191114285       -1.7365180555       -1.3185986543
 H          2.9233926000       -0.2296030833       -0.2612011798
 H          1.2206368311       -0.7687442054       -3.9226402080
 H          3.1071333125       -3.8608431654        4.4180994277
 H          2.9333277119       -4.1373222657        1.3778225271
 H         -0.4207980719        4.6950146058        4.6010100076
 H         -1.9019067145        2.0431556611        4.2804675678
 H         -3.1539371901        2.1650788897       -1.5410403290
 H         -5.3845515969        0.0883574620       -1.7424813303
 H          4.5101146956       -1.1071015439       -1.5858241167
 H          3.4244635497       -0.7135478339       -4.4172503856
 C         -4.5196592960        2.3840616468       -7.8797800024
 C         -4.2891016703        2.5735667622       -9.3801192221
 O         -5.7769611793        1.7726068184       -7.6421375724
 C         -5.8640624533        0.5310061501       -8.3199954424
 C         -5.6331615657        0.7199200267       -9.8207068898
 O         -4.3762143338        1.3309505745      -10.0582066371
 H         -4.5448959673        3.3441577386       -7.3644316058
 H         -5.0419371438        3.2657246885       -9.7839819753
 H         -5.1110302005       -0.1616568297       -7.9163830116
 H         -6.4323888038        1.3485792594      -10.2392321613
 H         -3.2879818779        2.9580866903       -9.5752949663
 H         -6.8653014111        0.1461077320       -8.1254723361
 H         -5.6078564549       -0.2406107627      -10.3356144993
 H         -3.7207998275        1.7546245154       -7.4620567214