142
-211.12738955
 C         -3.4298028170       -5.0565116558        6.0408421026
 C         -4.0544679377       -5.8966836845        4.9309149934
 C          4.6693483311        4.3605791699        5.9352977983
 C          3.5665593099        5.4119939955        5.9709775201
 C          5.0607720112       -4.8092012300       -4.2482878191
 C          5.9767020004       -3.8679529924       -3.4715488171
 C          1.6277213450        6.0723911338       -6.7614876806
 C          1.1065522426        4.7739849283       -7.3693301209
 C         -2.0032744441       -4.6595745554        5.6764788253
 C         -4.0252220967       -5.1421433693        3.6058855831
 C          4.0889506881        3.0056490029        5.5515046023
 C          2.8740025513        5.4905206928        4.6166083528
 C          3.7236362250       -4.9699034102       -3.5325781560
 C          5.3070431136       -2.5129643011       -3.2679753177
 C          0.9345802576        6.3556286751       -5.4335183353
 C          1.3085158777        3.6134010777       -6.4015955185
 C          1.5539494898       -0.7437781625        3.5141734951
 C         -0.4535187860       -3.5795004417       -0.8731519479
 C          0.6496563638        4.6993611417        0.2882973327
 C          1.3879140548        0.7263995154       -2.2466208245
 C          1.8899350397       -3.0245788225        2.8155958346
 C         -2.4148205338       -2.3167715483       -0.2665903687
 C          3.5986920077       -1.3671235312        2.4019154107
 C         -1.1824374059       -1.7560203550       -2.2648919331
 C         -1.4907352270        4.8818555489        1.3779849514
 C          0.8595772076       -0.1157774301       -0.0519858347
 C         -1.2925339395        5.3447956953       -0.9838853002
 C         -0.4319073672        1.6912382537       -0.9938076201
 C         -0.2558281104       -2.3881378840        3.8685314592
 C         -1.6635386482       -4.1764218975        1.1865219533
 C          3.3271952236        0.9572684520        3.1719007544
 C          0.8997948233       -2.9134778713       -2.8463590291
 C          0.4807817409        4.3208899053        2.7374286040
 C          2.5827179766       -1.2645148040       -1.3575521861
 C          0.8704803123        5.0527127632       -2.1445456884
 C          0.0587772067        2.5854922389       -3.2253880089
 C          1.0837594741       -2.0481374866        3.4061558360
 C         -1.5170611452       -3.3546585349       -0.0057627898
 C          2.8112717344       -0.3974625960        3.0220078973
 C         -0.2729854895       -2.7785352957       -1.9978447170
 C         -0.1223790043        4.6212447132        1.4458329508
 C          1.6303799717       -0.1756991401       -1.2143430218
 C          0.0733731311        5.0534534935       -0.9267127523
 C          0.3508131286        1.6483363998       -2.1487036084
 C          3.1267385626       -2.6655961593        2.3207388040
 C         -2.2347852112       -1.5455393456       -1.3948659991
 C         -2.0493138851        5.2480678573        0.1659719604
 C         -0.1449475739        0.8259656453        0.0429502300
 C         -1.9829031926       -3.8815889168        4.3585241451
 C         -2.5937308415       -4.7577929626        3.2378899917
 C          3.3850647593        3.0626821428        4.1869042612
 C          2.2819517614        4.1329355530        4.2102036048
 C          3.0440892094       -3.6165608510       -3.3512775162
 C          3.9858418286       -2.6783107927       -2.5249602060
 C          1.1464286992        5.2078263916       -4.4493783509
 C          0.6077173877        3.8797408648       -5.0724117666
 Br         4.2185104817       -3.9977959076        1.4860986203
 Br        -3.4421200424       -0.1227927075       -1.7575827510
 Br        -3.9251261500        5.6281569867        0.0846382938
 Br        -1.1848440519        0.9072893581        1.6319934292
 N         -0.6350330457       -3.5867484689        3.9812486319
 N         -2.5786642336       -3.9825112049        2.0344956758
 N          2.7909912877        1.7798576219        3.9631788181
 N          1.8300679017       -3.7400703035       -2.6111367776
 N          1.7328094156        4.2874964550        2.8958036976
 N          3.3017889401       -1.4341576948       -2.3849556377
 N          0.3968014403        5.4247005619       -3.2574990647
 N          0.8935962090        2.8339900981       -4.1427668054
 H         -4.0274587490       -4.1552964573        6.1945799181
 H         -3.4220211878       -5.6198444747        6.9756661996
 H         -5.0861191889       -6.1441753277        5.1867261434
 H         -3.4995448722       -6.8320369810        4.8272287137
 H          5.4291359593        4.6527620285        5.2069828828
 H          5.1490678693        4.2843791300        6.9127098390
 H          2.8368059238        5.1496109763        6.7399800743
 H          3.9853203882        6.3884368156        6.2207335376
 H          4.8892113446       -4.4060637305       -5.2491825813
 H          5.5354892131       -5.7858891189       -4.3553641380
 H          6.9162078125       -3.7335342786       -4.0102907404
 H          6.2047029156       -4.3061291367       -2.4972355187
 H          1.4525576698        6.9029784470       -7.4473943409
 H          2.7049039806        5.9911279678       -6.5984207412
 H          1.6281442300        4.5635326013       -8.3046425752
 H          0.0424487954        4.8787458411       -7.5929632260
 H         -1.5693250779       -4.0342826686        6.4597752369
 H         -1.3776646640       -5.5472721171        5.5676023573
 H         -4.4417253354       -5.7600557082        2.8077263551
 H         -4.6220997003       -4.2312190125        3.6732290036
 H          3.3599337352        2.6836477930        6.2975810895
 H          4.8771986719        2.2506545022        5.5045618827
 H          3.5851984464        5.7970869171        3.8470883103
 H          2.0680971885        6.2273165736        4.6408605825
 H          3.8703325369       -5.4196467474       -2.5494852545
 H          3.0605591168       -5.6200735058       -4.1068580488
 H          5.1122239423       -2.0333161607       -4.2284671215
 H          5.9544122674       -1.8537569191       -2.6864441030
 H         -0.1379378609        6.4865659567       -5.5856051431
 H          1.3257885465        7.2724850834       -4.9877643740
 H          2.3713905727        3.4615702160       -6.2066398218
 H          0.9091423231        2.6903178975       -6.8263072160
 H          0.9543459070        0.0236003178        3.9772402104
 H          0.2596113014       -4.3678773905       -0.6878192762
 H          1.7037167495        4.4807112777        0.3586408090
 H          1.9891638044        0.6898543427       -3.1400173451
 H          1.5220790324       -4.0356319107        2.7511799377
 H         -3.2248530663       -2.1405455054        0.4227093724
 H          4.5683093956       -1.1105406138        2.0019105984
 H         -1.0554231526       -1.1281570196       -3.1341148958
 H         -2.1048546364        4.8059026325        2.2621753889
 H          1.0377365775       -0.8075143477        0.7574383605
 H         -1.7273333361        5.6299977463       -1.9283012305
 H         -1.2493763484        2.3907472173       -0.9144960351
 H         -0.9122254668       -1.5352459786        4.0884617336
 H         -0.9105997289       -4.9682325317        1.3094165879
 H          4.2284023398        1.1981188304        2.5878901605
 H          0.9527687117       -2.2056216362       -3.6872029868
 H         -0.2210859703        4.1723266784        3.5701533003
 H          2.5934209941       -1.9800847227       -0.5213953621
 H          1.9006586205        4.6823425086       -2.0389082930
 H         -0.9271461462        3.0679706743       -3.1775478404
 H         -2.5881264011       -2.9632437452        4.4538701986
 H         -1.9629873293       -5.6592772155        3.1454012947
 H          4.1167652537        3.3208947420        3.4016935181
 H          1.5140845296        3.8261936333        4.9413996728
 H          2.8784324143       -3.1276496535       -4.3267722589
 H          4.1489755507       -3.1678462455       -1.5505847674
 H          2.2212197864        5.0612137775       -4.2431675974
 H         -0.4769083293        4.0130077947       -5.2196979209
 C         -5.7310582633       -4.7629524375       -1.7980094872
 C         -5.3941658667       -3.3950743104       -2.3903987902
 O         -5.4390281105       -5.7934503249       -2.7276516471
 C         -4.0798598767       -5.7424983116       -3.1216137278
 C         -3.7407116087       -4.3729541333       -3.7120849446
 O         -4.0298235194       -3.3438279737       -2.7819346449
 H         -6.7964148077       -4.8407434087       -1.5818143893
 H         -6.0314854367       -3.2024700374       -3.2648803703
 H         -3.4357775969       -5.9369761173       -2.2516229186
 H         -4.3256186358       -4.2118353065       -4.6290543254
 H         -5.5333043458       -2.6056276780       -1.6523990501
 H         -3.9472135183       -6.5289073288       -3.8647894913
 H         -2.6753963081       -4.2974103858       -3.9320121659
 H         -5.1487756633       -4.9206494224       -0.8789385113