142
-211.12804635
 C          3.4123199441       -6.6326221854        2.7302003935
 C          2.8115451218       -6.8559520404        1.3461741765
 C         -3.7344334474        3.8051337428        5.3720398230
 C         -4.4408839539        3.5937782812        4.0367590706
 C         -3.7500829099        4.8572903697       -3.6624627226
 C         -3.9096436757        4.1753414897       -5.0175254371
 C          7.9588330812       -0.5410970822       -1.8548148844
 C          7.7573517536       -1.1145080209       -3.2537222761
 C          3.7663097375       -5.1626009044        2.9235211412
 C          1.5787393207       -5.9809052386        1.1550591593
 C         -2.5117285447        2.9006287554        5.4776426881
 C         -3.4829032400        3.8546907784        2.8797838055
 C         -3.7704108644        3.8251955897       -2.5404859062
 C         -2.8104865824        3.1396366039       -5.2258198267
 C          6.8974708986        0.5101265304       -1.5538456547
 C          6.3612146325       -1.7119689491       -3.3856949184
 C          1.5197603842        0.2738945251        3.8177951866
 C         -0.5671735698       -0.7857252376       -0.4115679607
 C          1.5078223212        1.6338289534        0.3872225680
 C          0.5765371186       -0.4208171211       -3.8908292940
 C          3.7341536033       -0.1797505038        2.9855486503
 C         -1.6741215000       -2.2132076955        1.1791600833
 C          3.0099478185        2.1003254394        3.3221477658
 C         -2.8338100888       -0.3068679515        0.2470197873
 C          0.6123044040        3.8136251685       -0.1093267446
 C         -0.9305523609       -2.2318475664       -3.3897581169
 C          2.6401411465        3.0583707426       -1.1885023507
 C          1.4562659860       -2.5545550984       -3.2012701398
 C          2.1815685661       -2.0647546322        3.4065618314
 C          0.6531529228       -2.7257436254        0.4975890288
 C          0.6975781913        2.6011210554        4.0074265578
 C         -1.6967232099        1.1608300500       -1.3987133509
 C         -0.5522700837        2.3499005631        1.5201325900
 C         -1.8661016505       -0.0179080868       -3.9274700011
 C          3.5780395127        0.8215452276       -0.6763558163
 C          3.0146113482       -0.6757799586       -3.6287686928
 C          2.4890176690       -0.6404829046        3.4217100890
 C         -0.5451199375       -1.9015354877        0.4195076942
 C          1.7646015306        1.6448862995        3.7531727904
 C         -1.7033058325        0.0144517648       -0.5032477548
 C          0.5290206974        2.6052299061        0.5813440061
 C         -0.7247494695       -0.9075845928       -3.7745960588
 C          2.5660944611        1.8521934035       -0.4895014858
 C          1.6670790714       -1.2291989869       -3.5910206639
 C          3.9743577330        1.1787962358        2.9546226573
 C         -2.7934298916       -1.4093707383        1.0805378130
 C          1.6624244996        4.0135635533       -0.9864404926
 C          0.1644950448       -3.0330088940       -3.1191424599
 C          2.5374571513       -4.2729418979        2.7400392438
 C          1.9234341410       -4.5010652728        1.3346736581
 C         -1.5343528967        3.1655899061        4.3353910082
 C         -2.2612795578        2.9456860064        2.9676902328
 C         -2.6665213579        2.7900952741       -2.7313338411
 C         -2.8326711600        2.0880625485       -4.1195639682
 C          5.4910423787       -0.0807301352       -1.6718314694
 C          5.2863551692       -0.6657749070       -3.0929231129
 Br         5.6735186069        1.8115087806        2.3517217512
 Br        -4.3293785347       -1.8244227088        2.1392374850
 Br         1.7563174749        5.6580496794       -1.9552314471
 Br        -0.1270167053       -4.8429078994       -2.5811660751
 N          2.9269290055       -2.8977652550        2.8192474624
 N          0.7241116028       -3.7299534034        1.2571791510
 N         -0.4604192640        2.2310755092        4.3600001250
 N         -2.7512226192        1.7764431837       -1.7289459359
 N         -1.3279167591        3.2596160661        1.9334521001
 N         -1.7262987233        1.2001457231       -4.2421014710
 N          4.5313423911        0.9609935846       -1.4900779115
 N          3.9965665765       -1.2861598010       -3.1212329131
 H          2.6920629893       -6.9365821700        3.4930211990
 H          4.3097120425       -7.2414753228        2.8522391054
 H          2.5329563136       -7.9035359010        1.2222226443
 H          3.5528432529       -6.6117773944        0.5821314915
 H         -3.4226089661        4.8485595384        5.4584616658
 H         -4.4177516324        3.5882690740        6.1946262605
 H         -4.8088873389        2.5669728357        3.9783374046
 H         -5.2979821013        4.2643295521        3.9574109993
 H         -2.8029146944        5.4008855984       -3.6379756492
 H         -4.5558596275        5.5768957937       -3.5092355857
 H         -3.8649967496        4.9169888134       -5.8166193676
 H         -4.8845231024        3.6847855878       -5.0663073245
 H          8.9481747845       -0.0883583049       -1.7734626111
 H          7.8942824106       -1.3444170722       -1.1176658808
 H          8.5030192571       -1.8857679988       -3.4538564985
 H          7.8849734028       -0.3216052278       -3.9940359114
 H          4.1715761089       -4.9956380086        3.9236359453
 H          4.5230035114       -4.8579709286        2.1985153907
 H          1.1591714577       -6.1226918829        0.1573243333
 H          0.8104747630       -6.2449762277        1.8833891549
 H         -2.8118210741        1.8522049645        5.4393819762
 H         -1.9937372428        3.0692016060        6.4240057468
 H         -3.1443585789        4.8919458937        2.8924021763
 H         -3.9806385161        3.6733111615        1.9255145850
 H         -4.7305964880        3.3073080535       -2.5171638399
 H         -3.6247463928        4.3113694151       -1.5741676447
 H         -1.8312620312        3.6211576996       -5.2254513978
 H         -2.9386060761        2.6359946414       -6.1861772396
 H          6.9795956682        1.3424132511       -2.2545701550
 H          7.0257116779        0.9062110350       -0.5446989010
 H          6.2366225197       -2.5388213471       -2.6843772938
 H          6.2052456567       -2.0995740214       -4.3945548992
 H          0.5489002981       -0.0572888724        4.1523892573
 H          0.3036449945       -0.5396696226       -1.0024450408
 H          1.4467383024        0.7030607326        0.9331832599
 H          0.7138219734        0.6072537084       -4.1882786018
 H          4.4794148906       -0.8966222091        2.6802551644
 H         -1.6468975964       -3.0772564976        1.8232760156
 H          3.2138776924        3.1589924894        3.2655536654
 H         -3.7103935070        0.3154211568        0.1657110869
 H         -0.1471436881        4.5618394909        0.0513487328
 H         -1.9324750256       -2.6225099342       -3.2944337822
 H          3.4622506226        3.2182193363       -1.8673190578
 H          2.3083587724       -3.1739151376       -2.9713653828
 H          1.2478101185       -2.3575738753        3.9061328351
 H          1.4869817185       -2.4134080772       -0.1511416756
 H          0.9439701386        3.6566403059        3.8202327339
 H         -0.7061097175        1.4494561192       -1.7799185230
 H         -0.6418656129        1.3063671782        1.8562562824
 H         -2.8493921377       -0.4550393341       -3.6996219324
 H          3.4534951479       -0.0826563404       -0.0593251577
 H          3.1117248988        0.3147198489       -4.0943064800
 H          1.7606094453       -4.5208712202        3.4830099445
 H          2.6662375143       -4.1825434824        0.5819640946
 H         -1.1784246418        4.2103837670        4.3559456315
 H         -2.5586859836        1.8846444302        2.9365780099
 H         -1.6746281592        3.2711396615       -2.7387175875
 H         -3.7976846974        1.5521503502       -4.1050789663
 H          5.3524502904       -0.8987692733       -0.9428668685
 H          5.3518205275        0.1725889167       -3.8069579897
 C        -11.2087669785       -2.8753381822        0.5509979188
 C        -10.4904554065       -3.0979712125       -0.7814030346
 O        -10.2757415218       -2.8154402685        1.6161851545
 C         -9.3215435828       -1.7916806383        1.3882213998
 C         -8.6046180385       -2.0109746806        0.0549077317
 O         -9.5379538771       -2.0733234585       -1.0114006572
 H        -11.8771621781       -3.7063545986        0.7767604303
 H         -9.9838368453       -4.0738164571       -0.7668919077
 H         -9.8270983274       -0.8152181453        1.3778806162
 H         -8.0304468853       -2.9474742215        0.0968774991
 H        -11.1919434296       -3.0552316874       -1.6147965173
 H         -8.6176179041       -1.8384969807        2.2189822991
 H         -7.9397098718       -1.1773007579       -0.1700513313
 H        -11.7793239500       -1.9361221519        0.5084181807