142
-211.12674443
 C          3.4432562583       -6.2220842721        3.9669424792
 C          2.1575136782       -6.6712807971        3.2802795711
 C         -0.8442719807        5.6171039494        6.6074476823
 C         -2.1752219964        5.2351981488        5.9678640613
 C         -5.7730222746        4.6140320699       -0.7185548143
 C         -6.6868657343        3.6903334494       -1.5172476508
 C          4.7521507000       -2.0330935400       -4.3076922300
 C          3.7781157806       -2.8719080439       -5.1286270273
 C          3.8626805631       -4.8472886866        3.4595198379
 C          1.0471456123       -5.6540168475        3.5135146746
 C          0.2151154237        4.5649803287        6.3001795141
 C         -2.0131882598        5.0671700938        4.4613516124
 C         -5.1840997958        3.8751404943        0.4777558678
 C         -5.9217601797        2.4559791181       -1.9804862623
 C          4.0583484242       -0.7869826759       -3.7711181137
 C          2.5685181883       -3.2564739538       -4.2845942419
 C          2.5862056150        0.9630623326        3.6434334841
 C         -1.4756014937       -0.6538280655        1.8146827681
 C          0.7165160627        1.5704675142        0.4146804499
 C         -2.4328175394       -1.2141250171       -1.7911626985
 C          3.9395319841       -0.0918158497        1.9535916218
 C         -1.5747420068       -1.4669419225        4.0783689279
 C          3.5770887787        2.2969519978        1.8997604283
 C         -2.9962218907        0.3608271537        3.3829501081
 C         -0.2683668080        3.7102190950       -0.0882053724
 C         -3.3724837540       -2.6052912910       -0.0639965689
 C          0.7977347768        2.4230316022       -1.8351363968
 C         -1.3113627976       -3.2467936046       -1.1506725400
 C          2.8635264290       -1.4843246700        3.7006925558
 C         -0.0195175064       -2.5335729920        2.4713035964
 C          2.0612407927        3.3769874254        3.5171976307
 C         -2.9055729904        1.1960722808        1.0502064760
 C         -0.3503795490        2.8392654275        2.2318483425
 C         -4.4513102616       -0.4495472617       -0.5829289211
 C          1.8315544419        0.2288498913       -1.3294349054
 C         -0.2959258069       -1.7842295368       -2.8768984132
 C          3.1475625283       -0.1870293707        3.1011178250
 C         -1.0369214770       -1.5419335420        2.7921907287
 C          2.7800254376        2.2047587546        3.0399529969
 C         -2.4521725904        0.2971750624        2.1006386064
 C          0.0294268093        2.7072645944        0.8336249456
 C         -3.4284223585       -1.4514238486       -0.8445219756
 C          1.1091703894        1.4228338519       -0.9121996065
 C         -1.3677605771       -2.0947452539       -1.9398216472
 C          4.1480178765        1.1472794514        1.3826218712
 C         -2.5401973433       -0.5165603152        4.3494159405
 C          0.1137995798        3.5443667262       -1.4066330636
 C         -2.3187059347       -3.4853256974       -0.2378713991
 C          2.7607920249       -3.8151093829        3.6947892085
 C          1.4516604227       -4.2712812997        2.9991786783
 C          0.4030088183        4.3967144888        4.7945531859
 C         -0.9633950170        4.0087827864        4.1381635557
 C         -4.4055642511        2.6419629137        0.0307326812
 C         -5.3371445152        1.6933017376       -0.7943067416
 C          2.8466964580       -1.1579289231       -2.9140004243
 C          1.8575492466       -2.0160564466       -3.7450977034
 Br         5.2273117667        1.2800115206       -0.1890844831
 Br        -3.2616044935       -0.4016360370        6.1151735348
 Br        -0.3277184545        4.9045755493       -2.6741051534
 Br        -2.2428729732       -5.0584898381        0.8446657533
 N          3.1447699612       -2.5654487895        3.1119582143
 N          0.4315603987       -3.3313183284        3.3378142208
 N          1.2864315632        3.3161589985        4.5162876544
 N         -3.9480187894        1.9036435851        1.1636615448
 N         -0.7508113932        3.9316544816        2.7285465872
 N         -4.5046481544        0.6294475344       -1.2425239243
 N          2.1655437794        0.0369928911       -2.5303690155
 N          0.7970052523       -2.4165881595       -2.8711693252
 H          3.2833218610       -6.1779839598        5.0465574637
 H          4.2420937055       -6.9399996532        3.7735817383
 H          1.8445686563       -7.6421122198        3.6675653165
 H          2.3335813706       -6.7773270834        2.2076402505
 H         -0.5179592202        6.5851830728        6.2204793813
 H         -0.9615874022        5.7080903625        7.6884515580
 H         -2.5316976171        4.2980400412        6.4012991365
 H         -2.9214797870        6.0052820880        6.1694462234
 H         -4.9635024559        4.9690797728       -1.3602981156
 H         -6.3324994102        5.4833038217       -0.3694286572
 H         -7.0843697062        4.2173376736       -2.3860800803
 H         -7.5297085791        3.3829286703       -0.8939384185
 H          5.6025432271       -1.7358150567       -4.9232145392
 H          5.1315365118       -2.6259060109       -3.4725529307
 H          4.2723487482       -3.7759141634       -5.4882999158
 H          3.4478775010       -2.2998247877       -5.9985213077
 H          4.7687671907       -4.5121932881        3.9684939752
 H          4.0730326918       -4.8878884720        2.3894537021
 H          0.1328716822       -5.9611020759        3.0020406223
 H          0.8262725411       -5.5722858913        4.5788745420
 H         -0.0760373054        3.6010324538        6.7207125460
 H          1.1734669808        4.8491969815        6.7396425767
 H         -1.7065679630        6.0093687259        4.0042401236
 H         -2.9591041731        4.7639495372        4.0091383980
 H         -5.9772834581        3.5562522007        1.1558999325
 H         -4.5073302908        4.5279397374        1.0318978835
 H         -5.1029909373        2.7444590705       -2.6416866280
 H         -6.5812456803        1.7838810102       -2.5334430602
 H          3.7156411223       -0.1600652916       -4.5957255618
 H          4.7466263774       -0.1973547672       -3.1624488232
 H          2.8791503321       -3.8703459892       -3.4374730763
 H          1.8576507410       -3.8355141564       -4.8776355068
 H          1.9652276108        0.9144157524        4.5244498843
 H         -1.0631468560       -0.7061257688        0.8169891120
 H          0.9540369221        0.7998649009        1.1344178330
 H         -2.4952239371       -0.3146230818       -2.3837730617
 H          4.3690825729       -0.9896372597        1.5387687648
 H         -1.2258713484       -2.1565719134        4.8299450663
 H          3.7364531837        3.2513271312        1.4208657934
 H         -3.7553049715        1.0970017821        3.5931389735
 H         -0.7957411277        4.5888120738        0.2468962153
 H         -4.1357309928       -2.8029619119        0.6735266435
 H          1.1025823355        2.2978977609       -2.8615701099
 H         -0.4806526214       -3.9234789216       -1.2718487206
 H          2.3643391832       -1.4579635411        4.6792155137
 H          0.3243106961       -2.5406006935        1.4248023381
 H          2.1908592757        4.2964925370        2.9279248167
 H         -2.2827393317        1.2101599152        0.1437968438
 H         -0.2578484547        1.9217108007        2.8311347019
 H         -5.1352014208       -0.6637154060        0.2513162087
 H          2.0668510281       -0.4891438460       -0.5278724615
 H         -0.4905323377       -0.9486681426       -3.5635254165
 H          2.5428992349       -3.7137522285        4.7714457043
 H          1.6379918319       -4.3016442092        1.9112067239
 H          0.7362792596        5.3408361271        4.3297818318
 H         -1.2488745990        3.0308000351        4.5595073005
 H         -3.5726808421        2.9229578723       -0.6348232597
 H         -6.1355622519        1.3438433486       -0.1168935623
 H          3.1591036486       -1.7527223919       -2.0376858891
 H          1.4893625710       -1.3854348693       -4.5719760896
 C          2.3929619768       -1.5683087370      -12.3999554821
 C          1.1354139199       -1.3805935219      -13.2509998048
 O          2.8358039001       -2.9141187016      -12.4555215888
 C          3.0791119780       -3.3046977915      -13.7965860952
 C          1.8217874321       -3.1169062178      -14.6479679960
 O          1.3783405070       -1.7713242075      -14.5920164491
 H          2.1885543205       -1.3576203723      -11.3502034950
 H          0.3161833425       -1.9848906877      -12.8350069939
 H          3.8982995862       -2.7004055873      -14.2124159610
 H          1.0262500204       -3.7814312035      -14.2807829373
 H          0.8419858204       -0.3313632429      -13.2874913967
 H          3.3724055380       -4.3539592513      -13.7603229968
 H          2.0265867008       -3.3270571177      -15.6977769898
 H          3.1883577984       -0.9041700855      -12.7678872607