142
-211.12667175
 C          4.7892828598       -5.9378606773        3.5722240055
 C          3.7874267414       -6.4217963561        2.5289049535
 C         -1.8158122667        4.7578474112        6.6022927085
 C         -2.9016396504        4.2805695351        5.6431407634
 C         -4.7732008731        4.1272591029       -2.0166171197
 C         -5.3305909917        3.2093292258       -3.0999326739
 C          7.1503472222       -0.9551616937       -3.1154289179
 C          6.5505540757       -1.7746033343       -4.2534713593
 C          5.0806096529       -4.4540918832        3.3795273857
 C          2.5008017392       -5.6092795449        2.6106291460
 C         -0.5621794075        3.9023783499        6.4575150050
 C         -2.3957922724        4.3149458636        4.2052979627
 C         -4.3755489043        3.3196371779       -0.7860881545
 C         -4.3091533960        2.1400294256       -3.4710727497
 C          6.1854493444        0.1434104663       -2.6860418239
 C          5.2143909808       -2.3730205903       -3.8291032873
 C          2.8821802523        1.0321446358        4.0337665235
 C         -0.3969622280       -0.8309899839        0.9450593795
 C          1.6508685904        1.6590632827        0.6529619566
 C         -0.4943584535       -1.1504605608       -2.6968004662
 C          4.7270584910        0.4499955668        2.5985246413
 C         -0.8410986616       -1.9425433511        3.0333058605
 C          3.9924149397        2.7458871938        2.7560070573
 C         -2.3606023968       -0.2498081652        2.2119549588
 C          0.5121839208        3.7038060632        0.0864041398
 C         -1.6672030662       -2.8144591013       -1.4091381950
 C          2.1233500769        2.7460911719       -1.4419636856
 C          0.6688196043       -3.1204458439       -1.9426776871
 C          3.5337338086       -1.3368888518        3.8323372585
 C          1.1792907377       -2.5541666590        1.7318642232
 C          2.0015407618        3.3454533894        4.0758223123
 C         -1.9041996889        0.8942505798        0.0576907120
 C          0.0297185515        2.5863231515        2.2489864115
 C         -2.8371952610       -0.7336303976       -2.0128960386
 C          3.3066958377        0.6447015993       -0.8641467273
 C          1.9121976352       -1.3738870927       -3.1842449304
 C          3.7297393100        0.0682695614        3.4998682105
 C         -0.0358037618       -1.7702919596        1.9060675896
 C          2.9934489158        2.3685866627        3.6525586565
 C         -1.5518629511       -0.0666926531        1.0910205397
 C          0.7301474218        2.6525849106        0.9760546056
 C         -1.6637752764       -1.5915462695       -2.0789410782
 C          2.3522705058        1.6984463057       -0.5481853397
 C          0.6754778667       -1.8973691296       -2.6186026088
 C          4.8465218124        1.7806137231        2.2530807860
 C         -1.9856373524       -1.1795226688        3.1644471669
 C          1.2082590915        3.7261965991       -1.1082374816
 C         -0.5028422421       -3.5601979844       -1.3613368207
 C          3.7983346791       -3.6270013473        3.4655415756
 C          2.7799216898       -4.1188506582        2.4055114833
 C         -0.0339365661        3.9434686782        5.0260519302
 C         -1.1494874923        3.4504336112        4.0460171877
 C         -3.3425181369        2.2561311351       -1.1437279586
 C         -3.9165992491        1.3113101282       -2.2507956067
 C          4.8442053590       -0.4466878304       -2.2455353729
 C          4.2347371752       -1.2808375307       -3.4012936525
 Br         6.2040252667        2.3038199856        1.0147559556
 Br        -3.0796986297       -1.4058459651        4.7146575745
 Br         0.8847725105        5.1519586495       -2.3384987971
 Br        -0.5119912160       -5.2275399800       -0.4285382254
 N          4.0941083509       -2.2571475243        3.1740684300
 N          1.5682065944       -3.3870493174        2.5953177234
 N          1.0556181331        3.0418361530        4.8602597125
 N         -3.0405472413        1.4462226403       -0.0068286672
 N         -0.6289901347        3.5578740459        2.7205550813
 N         -2.8673752109        0.4029486135       -2.5693170166
 N          3.9379875231        0.6183873385       -1.9555585156
 N          3.0338445773       -1.8838749948       -2.9083289940
 H          4.3812202203       -6.1013675014        4.5721059811
 H          5.7186221298       -6.5041095942        3.4906307317
 H          3.5586105776       -7.4765095703        2.6890651561
 H          4.2200222115       -6.3185318565        1.5313296455
 H         -1.5708745323        5.8002640906        6.3859199535
 H         -2.1754651006        4.7025843012        7.6309781025
 H         -3.1918018814        3.2595245393        5.9009659252
 H         -3.7847902306        4.9149621476        5.7332717282
 H         -3.8980124038        4.6552783686       -2.4019472397
 H         -5.5202316744        4.8718886065       -1.7372396658
 H         -5.5852661331        3.7907601935       -3.9874767642
 H         -6.2427326431        2.7296486862       -2.7374640952
 H          8.0918353729       -0.5043673927       -3.4329415436
 H          7.3592859621       -1.6084672065       -2.2654290480
 H          7.2335491312       -2.5765823762       -4.5385532066
 H          6.4012237855       -1.1329236876       -5.1246481975
 H          5.7765957848       -4.0991341782        4.1424031212
 H          5.5357974322       -4.2824154064        2.4025887381
 H          1.7901517388       -5.9393385795        1.8505671580
 H          2.0322908267       -5.7392475925        3.5873739635
 H         -0.7796664824        2.8648102139        6.7160301168
 H          0.2223931753        4.2598632625        7.1275858927
 H         -2.1487246869        5.3367681847        3.9129049819
 H         -3.1630245339        3.9444553013        3.5230683343
 H         -5.2483284136        2.8248620296       -0.3569475889
 H         -3.9488083383        3.9734709634       -0.0233352606
 H         -3.4087134232        2.6017018111       -3.8794806271
 H         -4.7184047946        1.4692218050       -4.2292962325
 H          6.0026491682        0.8313583350       -3.5129092607
 H          6.6032416043        0.7179478107       -1.8571974736
 H          5.3560946680       -3.0560129704       -2.9897550582
 H          4.7701124017       -2.9376478862       -4.6514047367
 H          2.1009400410        0.7608755438        4.7268205560
 H          0.2206531410       -0.6962907083        0.0684545026
 H          1.8271710014        0.8525008139        1.3503662613
 H         -0.5123760618       -0.2002412394       -3.2076931685
 H          5.3799226144       -0.3046719929        2.1902274774
 H         -0.5532604190       -2.6711868474        3.7739088326
 H          4.0897977339        3.7767183734        2.4502219223
 H         -3.2562784284        0.3416139811        2.3136529226
 H         -0.1979964909        4.4718773214        0.3472642185
 H         -2.5647308911       -3.1681281957       -0.9244252261
 H          2.6697916932        2.7683943598       -2.3710250691
 H          1.5809841811       -3.6926336042       -1.8877393223
 H          2.8432424452       -1.5406322816        4.6623328209
 H          1.7316396791       -2.3692339093        0.7966580218
 H          2.0919063228        4.3456896681        3.6271513960
 H         -1.1108593271        1.1008252354       -0.6758951253
 H          0.1233632479        1.6289101074        2.7827048892
 H         -3.6716246192       -1.1087877626       -1.4021985562
 H          3.4378840213       -0.1238129991       -0.0856902446
 H          1.8072886490       -0.4919084842       -3.8310166328
 H          3.3251301695       -3.7408868352        4.4555516466
 H          3.2144999941       -3.9408476833        1.4057767892
 H          0.2302295888        4.9745861664        4.7332941556
 H         -1.3625699869        2.4024931011        4.3139150213
 H         -2.4342939443        2.7179204251       -1.5646085156
 H         -4.7960965348        0.7987122728       -1.8235990581
 H          4.9825285040       -1.1155903693       -1.3775276339
 H          4.0314868582       -0.5887740051       -4.2360112506
 C        -12.5235198836       -1.2617718038       -9.8639185546
 C        -11.4394690419       -1.5334287104       -8.8189958318
 O        -12.3168834478       -2.0620947843      -11.0158447933
 C        -12.2913253732       -3.4369991422      -10.6707435037
 C        -11.2073050355       -3.7090502048       -9.6258617813
 O        -11.4129553217       -2.9084539617       -8.4738101723
 H        -12.4885642765       -0.2260058984      -10.2018984718
 H        -10.4595133156       -1.2364518553       -9.2199108506
 H        -13.2713521501       -3.7335038477      -10.2697465589
 H        -10.2191977947       -3.4881792385      -10.0549408282
 H        -11.6432579404       -0.9912297581       -7.8955338033
 H        -12.0878086131       -3.9795497630      -11.5940380701
 H        -11.2426970630       -4.7447596441       -9.2877091846
 H        -13.5115155191       -1.4832976527       -9.4350245472