142
-211.13278064
 C          3.5033027300       -6.3994111764        3.3704398337
 C          2.5339480745       -6.7982310201        2.2624677268
 C         -2.5918129812        4.5887319540        6.3711624687
 C         -3.6605479636        4.2055279076        5.3524738091
 C         -5.2323017117        4.3217441693       -2.3761776225
 C         -5.7945585608        3.4596290599       -3.5018049769
 C          6.5008903534       -1.2170916794       -3.1871936714
 C          5.9013553872       -1.9851260466       -4.3606663765
 C          3.8923729623       -4.9321502970        3.2314331713
 C          1.2947744352       -5.9119839503        2.2965866757
 C         -1.3851364631        3.6646691729        6.2515829534
 C         -3.0908390875        4.2523142999        3.9391009697
 C         -4.9152302018        3.4633624402       -1.1569672866
 C         -4.8094328874        2.3555712162       -3.8696677949
 C          5.5658636920       -0.0945053739       -2.7539409160
 C          4.5336414922       -2.5437790054       -3.9853713620
 C          1.9872113561        0.6617314926        3.9044248772
 C         -1.2256794062       -0.9189976303        0.6337384315
 C          0.9592559087        1.4941379393        0.4687282865
 C         -1.1475272041       -1.1055347328       -2.9968638363
 C          3.8648698068        0.0027097060        2.5471954415
 C         -1.8375546932       -2.0619539442        2.6620042062
 C          3.2630043729        2.3351317034        2.7320858903
 C         -3.2193931531       -0.2667088553        1.8167623900
 C         -0.0838728624        3.5917345593       -0.0895597321
 C         -2.4591197842       -2.7661783452       -1.8456556337
 C          1.5406355140        2.6059438742       -1.5856174111
 C         -0.1166677970       -3.1630518767       -2.2853301447
 C          2.5060867736       -1.7368911661        3.6737676332
 C          0.2085640465       -2.7526983492        1.4446017003
 C          1.2477265278        3.0228561069        3.9710501192
 C         -2.5991187193        0.9036490809       -0.2801417837
 C         -0.6829813048        2.4477140274        2.0288612945
 C         -3.5038382454       -0.6105018533       -2.4174558129
 C          2.6316210960        0.4546427163       -1.0149362415
 C          1.2575109550       -1.4252958135       -3.4047571295
 C          2.8016253665       -0.3390922381        3.3872276521
 C         -0.9669487741       -1.9037737010        1.5822341612
 C          2.1983835242        1.9979108476        3.5668929039
 C         -2.3456456831       -0.0986699506        0.7432169338
 C          0.0660444757        2.5151395899        0.7837307676
 C         -2.3663420605       -1.5164827664       -2.4583641519
 C          1.7034059944        1.5337662061       -0.7064324606
 C         -0.0201629402       -1.9136974528       -2.9025424413
 C          4.0819693355        1.3316735168        2.2453369452
 C         -2.9438657551       -1.2399129762        2.7595869084
 C          0.6494225694        3.6107829992       -1.2617758995
 C         -1.3345768842       -3.5687704824       -1.7775506826
 C          2.6589325534       -4.0307321537        3.2702711869
 C          1.6709013318       -4.4364828954        2.1464839772
 C         -0.7927851104        3.7162773953        4.8456036752
 C         -1.8907802540        3.3206336607        3.8040742549
 C         -3.9202864014        2.3614405622       -1.5075496396
 C         -4.4959217171        1.4759688579       -2.6627885353
 C          4.1923656487       -0.6440042949       -2.3641968491
 C          3.5833329898       -1.4266242870       -3.5562488745
 Br         5.5318323975        1.8011149889        1.0928504079
 Br        -4.1258583194       -1.4459861212        4.2466279911
 Br         0.4096884685        5.0653285531       -2.4767706690
 Br        -1.4674318269       -5.2725092590       -0.9232342052
 N          3.0505151888       -2.6754473163        3.0280204648
 N          0.4957794625       -3.6386523536        2.2949471117
 N          0.2472178728        2.7550481614        4.6985831574
 N         -3.7055003704        1.5082860381       -0.3835851867
 N         -1.3092794991        3.4381974819        2.5048695037
 N         -3.4761225947        0.5294214539       -2.9698209318
 N          3.3182819014        0.4464516940       -2.0725442843
 N          2.3464809728       -1.9953677377       -3.1112518767
 H          3.0313914914       -6.5599942593        4.3423240017
 H          4.4004776985       -7.0190234004        3.3248235343
 H          2.2350839874       -7.8407210061        2.3822071920
 H          3.0261686013       -6.6979800111        1.2926265258
 H         -2.2772486874        5.6206351940        6.1989010881
 H         -2.9986883009        4.5245083201        7.3815870560
 H         -4.0206775950        3.1963923603        5.5650029458
 H         -4.5083647418        4.8884663995        5.4256960889
 H         -4.3210138514        4.8177897984       -2.7176709797
 H         -5.9529853317        5.0930013868       -2.1001088904
 H         -5.9928711428        4.0749547867       -4.3806792151
 H         -6.7389012644        3.0130582542       -3.1823505218
 H          7.4662241677       -0.7939659571       -3.4692880285
 H          6.6636619098       -1.8985148744       -2.3492545628
 H          6.5620229444       -2.8043888208       -4.6493985392
 H          5.7975090112       -1.3166793484       -5.2181962917
 H          4.5654151053       -4.6371763043        4.0391220016
 H          4.4096534029       -4.7666944476        2.2848257217
 H          0.6091632402       -6.1809893522        1.4908239139
 H          0.7662842435       -6.0364760840        3.2429743386
 H         -1.6741142221        2.6347050589        6.4670113459
 H         -0.6111575966        3.9543674695        6.9653177937
 H         -2.7722006793        5.2659164473        3.6905329302
 H         -3.8476261389        3.9485645904        3.2135789535
 H         -5.8243330568        2.9986478363       -0.7719226618
 H         -4.4860913011        4.0753412959       -0.3615934198
 H         -3.8765904935        2.7889857250       -4.2334034796
 H         -5.2219896252        1.7257983363       -4.6602397652
 H          5.4303388447        0.6204256331       -3.5668781934
 H          5.9822608479        0.4423833602       -1.8994677722
 H          4.6284193384       -3.2515788734       -3.1600118522
 H          4.0910910932       -3.0713632846       -4.8328388855
 H          1.1567888898        0.4222107873        4.5504242477
 H         -0.5559097557       -0.7935621515       -0.2051386447
 H          1.0807670576        0.6662176531        1.1527815492
 H         -1.0846373785       -0.1373532532       -3.4679439492
 H          4.4911158339       -0.7805626412        2.1511949447
 H         -1.6282600623       -2.8259713200        3.3932438385
 H          3.4383672642        3.3653133280        2.4609043411
 H         -4.0865374297        0.3696929945        1.8904654036
 H         -0.7736379448        4.3803151150        0.1648039801
 H         -3.3953096384       -3.0970389747       -1.4217796948
 H          2.1164742517        2.6247278365       -2.4968407420
 H          0.7632735575       -3.7822717980       -2.2156893050
 H          1.7580882334       -1.9163268708        4.4584029279
 H          0.8234379668       -2.5694661867        0.5490421223
 H          1.4213528263        4.0281960865        3.5598918221
 H         -1.7609972542        1.0923692277       -0.9672014981
 H         -0.6584047252        1.4715581852        2.5354753661
 H         -4.3700943560       -0.9557772879       -1.8348313235
 H          2.6931834679       -0.3475468193       -0.2620196484
 H          1.2068786998       -0.5278819769       -4.0330407673
 H          2.1270987505       -4.1368391391        4.2309720443
 H          2.1673273495       -4.2600566124        1.1758092915
 H         -0.4548239707        4.7376065288        4.5977695921
 H         -2.1755422708        2.2794171116        4.0277301996
 H         -2.9749081320        2.7894014276       -1.8797500236
 H         -5.4104435512        0.9910519418       -2.2803071706
 H          4.2809432163       -1.3391650335       -1.5103777626
 H          3.4268433878       -0.7081834589       -4.3784492410
 C         -1.1190719410        0.8481651658       -6.5704163148
 C         -2.5892932205        0.4703262947       -6.3856177820
 O         -0.2727196734       -0.1619997465       -6.0427985062
 C         -0.5454528873       -1.4099917441       -6.6552081707
 C         -2.0158945794       -1.7895566701       -6.4711207364
 O         -2.8608842941       -0.7830054468       -6.9966530604
 H         -0.8804956243        1.7625111021       -6.0267927130
 H         -2.8308255608        0.4199768304       -5.3138765586
 H         -0.3121397902       -1.3508652209       -7.7279570200
 H         -2.2267318711       -1.9261176260       -5.4002340481
 H         -3.2374682143        1.1930562067       -6.8811531054
 H          0.1064850421       -2.1389798026       -6.1727789587
 H         -2.2520297664       -2.7035259958       -7.0167020916
 H         -0.9025369315        0.9827496131       -7.6397775888