142
-211.12742496
 C          5.7956315845       -1.7160600828       -5.0086892670
 C          5.1836048474       -3.0472927255       -5.4326937170
 C         -2.3343071182        5.2500903709        4.5094356802
 C         -1.2128492922        6.2621235547        4.7212229181
 C         -6.6963672385        0.0788974190       -1.6569368690
 C         -6.1474228066        1.4472140641       -1.2652942076
 C          7.0902726137       -3.5433064294        3.6173691096
 C          6.0280633488       -4.5905828975        3.2989928218
 C          4.7014930633       -0.7177437993       -4.6501575448
 C          4.2971702339       -3.6010913364       -4.3230251842
 C         -2.3022800956        4.7099102443        3.0841264520
 C          0.1410706191        5.6284373066        4.4218843255
 C         -5.5570649015       -0.8882292205       -1.9587437572
 C         -5.2154553764        1.3244746246       -0.0649831084
 C          6.8662617012       -2.2894023321        2.7800477422
 C          4.6341492880       -4.0257878166        3.5445449063
 C          1.1270804230        1.3843919993       -0.5532637330
 C         -0.9196593314       -2.9114385594       -1.5503587803
 C          3.4249323080        2.5109410216        2.1040929963
 C          0.1172517555       -0.9949934762        1.4329308484
 C          0.5793497837        1.4581468167       -2.8961284842
 C          0.9502350592       -4.1304910257       -0.6459828832
 C         -0.7134790223        2.7424431515       -1.3065539396
 C         -1.1109402572       -3.9687611705        0.6050684292
 C          3.5701055358        3.5997982322       -0.0394940431
 C         -1.4976147458       -0.2026750234        3.0343001045
 C          4.8713801775        1.6121064631        0.4007919249
 C          0.6185996336       -1.1004778206        3.7848340741
 C          2.4868698003        0.0695327930       -2.1341294777
 C          1.1870860084       -2.9654536340       -2.8229727679
 C         -0.1513653846        2.6685665517        1.1080829951
 C         -2.9749275773       -2.5796926700       -0.2152682361
 C          1.9529324542        4.4399139317        1.6191139956
 C         -2.0155451005       -0.0929009202        0.6106290994
 C          4.6602554308        0.4304815058        2.5698230690
 C          2.2841052310       -1.9296511465        2.1463593917
 C          1.3865303236        0.9838082420       -1.8605192977
 C          0.3909932358       -3.3590053419       -1.6680896926
 C          0.0819016683        2.2594446745       -0.2682354558
 C         -1.6701804105       -3.1938369851       -0.4101072092
 C          3.0245346701        3.5305949008        1.2417115351
 C         -1.1235979796       -0.4265125213        1.7098693471
 C          4.3304297121        1.5420776452        1.6873856928
 C          0.9909079412       -1.3375841484        2.4603796335
 C         -0.4548846613        2.3249131600       -2.5991369431
 C          0.1860397405       -4.4297898846        0.4636253034
 C          4.4903380809        2.6441332503       -0.4324157592
 C         -0.6159718557       -0.5374739177        4.0455795411
 C          3.8123167513       -1.2585565919       -3.5284368154
 C          3.1908503103       -2.6111780923       -3.9611481222
 C         -0.9565816943        4.0605686336        2.7777301097
 C          0.1940789766        5.0986365245        2.9912414450
 C         -4.6247996492       -1.0320065389       -0.7585134563
 C         -4.0614435454        0.3749349081       -0.3694716692
 C          5.4738246324       -1.7087274935        3.0238430872
 C          4.3933419695       -2.7722917835        2.7007176013
 Br        -1.5713888729        2.9585020275       -4.0141653302
 Br         0.9506989630       -5.4777221085        1.8666059780
 Br         5.2230239643        2.7382506322       -2.1945649703
 Br        -1.1185584819       -0.2000129047        5.8579522278
 N          2.7415391436       -0.3416735441       -3.2988531204
 N          2.4407668502       -3.1131840960       -2.8498367947
 N         -0.9030923088        3.6385743753        1.4144132581
 N         -3.4915497197       -1.8262770350       -1.0915346773
 N          1.4054084005        4.3874602734        2.7590715112
 N         -3.2334595725        0.2036779383        0.7813284878
 N          5.2590038647       -0.5976844740        2.1472333933
 N          3.1225154139       -2.2178459271        3.0432507102
 H          6.4440009833       -1.8709433902       -4.1435163620
 H          6.4046630445       -1.3084802691       -5.8170282298
 H          5.9719510412       -3.7664495335       -5.6612496209
 H          4.5869791614       -2.9023262511       -6.3360802013
 H         -2.2159892072        4.4231433768        5.2132674289
 H         -3.3012401107        5.7186606889        4.6992608309
 H         -1.3661958895        7.1194525909        4.0617373158
 H         -1.2244357068        6.6226456702        5.7510380405
 H         -7.3031579968       -0.3181737412       -0.8399931566
 H         -7.3338304518        0.1716888220       -2.5372674606
 H         -6.9686212173        2.1228999787       -1.0212874028
 H         -5.5983100255        1.8736617105       -2.1077680511
 H          8.0847197032       -3.9437137962        3.4131863535
 H          7.0413901076       -3.2858517949        4.6777326924
 H          6.1737942536       -5.4743735597        3.9219898333
 H          6.1177652105       -4.8962238188        2.2542717843
 H          5.1380730360        0.2281689297       -4.3241104180
 H          4.0731005234       -0.5162182114       -5.5190442730
 H          3.8365331097       -4.5406597136       -4.6351199670
 H          4.8902004540       -3.7977106506       -3.4282371268
 H         -2.4691398465        5.5159193771        2.3677451847
 H         -3.0863634714        3.9639823155        2.9421227534
 H          0.3297668126        4.7983506443        5.1045839399
 H          0.9411975245        6.3602332465        4.5510411880
 H         -4.9724023827       -0.5306670799       -2.8078776919
 H         -5.9516949120       -1.8743052943       -2.2121955148
 H         -5.7583710311        0.9443813471        0.8018487504
 H         -4.8015403476        2.2997405839        0.1970670604
 H          6.9611116528       -2.5224407136        1.7181143142
 H          7.6096387686       -1.5281764909        3.0256187203
 H          4.5132662129       -3.7597128101        4.5957550121
 H          3.8713810198       -4.7658780387        3.2952174710
 H          1.7484649176        1.0203935611        0.2526497053
 H         -1.3710881006       -2.3087681926       -2.3231060863
 H          2.9890924357        2.4745791790        3.0904779716
 H          0.3989747498       -1.1783495696        0.4057070041
 H          0.7845853519        1.1393832098       -3.9053481585
 H          1.9677984062       -4.4729581198       -0.7450547519
 H         -1.5162803734        3.4244866527       -1.0772831112
 H         -1.6791146101       -4.1949493834        1.4947856359
 H          3.2689444984        4.3827414528       -0.7191202429
 H         -2.4624512418        0.2324678224        3.2394376099
 H          5.5728626601        0.8561393120        0.0861955194
 H          1.3024394131       -1.3669490648        4.5745151557
 H          3.0794213926       -0.2342523812       -1.2563928292
 H          0.6311223654       -2.4987872875       -3.6478981845
 H          0.3818146405        2.0775298415        1.8673695274
 H         -3.4534055107       -2.7625004503        0.7580003719
 H          1.6121355356        5.1330373158        0.8359967968
 H         -1.5554659482       -0.1242732143       -0.3880797990
 H          4.3229640406        0.5307994339        3.6107617316
 H          2.4764837823       -2.1078011313        1.0763220055
 H          4.4066042438       -1.4326464022       -2.6139307816
 H          2.5442468109       -2.4128983135       -4.8327833924
 H         -0.7580623802        3.2248383329        3.4686640754
 H          0.0427817326        5.9143335580        2.2629482060
 H         -5.1673261220       -1.4249489374        0.1188399732
 H         -3.4797541553        0.7307555286       -1.2356349231
 H          5.3495600102       -1.4232988951        4.0822684172
 H          4.4605750489       -3.0113275091        1.6245709321
 C        -12.8142866978        0.7598477495       -5.6294110624
 C        -12.9534798149       -0.7623931664       -5.6966468402
 O        -12.4264713830        1.1675608160       -4.3280885651
 C        -11.2131851734        0.5397120302       -3.9490017271
 C        -11.3528662499       -0.9825509113       -4.0151204761
 O        -11.7410205397       -1.3911557372       -5.3162743332
 H        -13.7679501064        1.2478608463       -5.8307449544
 H        -13.7620936231       -1.0877602918       -5.0261669946
 H        -10.4060997326        0.8647743504       -4.6214034103
 H        -12.1061902159       -1.3144632661       -3.2860682033
 H        -13.1607869497       -1.0904726377       -6.7152921129
 H        -11.0051107619        0.8687914012       -2.9308351151
 H        -10.4000793264       -1.4723320223       -3.8142616992
 H        -12.0613191411        1.0928378074       -6.3583302263