142
-211.12668633
 C          1.1781252909       -7.2340966470        1.1116934851
 C          1.0513972722       -7.1297166896       -0.4047122008
 C         -5.3778527362        3.5852819441        3.4828633521
 C         -5.5860729563        3.7286878723        1.9787306482
 C         -2.1985565115        6.2526735561       -4.4540714069
 C         -1.9355196754        5.8761800371       -5.9085194220
 C          7.7788224360       -0.9608216375       -0.3626218560
 C          8.0158232847       -1.2311303579       -1.8448574332
 C          1.6005707104       -5.8936598774        1.7018821130
 C          0.0532245140       -6.0415114889       -0.7810962730
 C         -4.3445913910        2.5035725478        3.7763557687
 C         -4.2665360347        4.0530504067        1.2876007010
 C         -2.6951960649        5.0419845689       -3.6719898892
 C         -0.9231391909        4.7393391123       -5.9892356361
 C          6.7532684621        0.1518724705       -0.1833876319
 C          6.7057168046       -1.5972439300       -2.5326219563
 C         -0.2527157351       -0.3836664098        2.9690826057
 C         -0.8776523977       -0.3522419483       -1.7618680703
 C          1.1041917538        1.6343366527        0.1210359122
 C          1.5163518312        0.5458097756       -4.5031087842
 C          2.0562800085       -1.0482735774        2.8050640230
 C         -2.6072364366       -1.8451251932       -1.0037190559
 C          1.4881879698        1.2282727546        3.3836433559
 C         -3.1757383444        0.3677790146       -1.7948520465
 C          0.6004996163        3.9785132573       -0.1072262075
 C         -0.1921663427       -1.1003373191       -4.9187867797
 C          2.8178003016        3.1575607268       -0.6126664299
 C          1.9628510998       -1.7793124528       -4.0618100061
 C          0.2724739733       -2.6955564592        2.3002906185
 C         -0.2485472746       -2.6055409616       -0.9817697203
 C         -0.8609161998        1.9765737380        3.3916765015
 C         -1.3980847243        1.9069279625       -2.5826594223
 C         -1.1653276431        2.4144902547        0.6576525382
 C         -0.7328445080        1.2858789812       -5.2201707237
 C          3.3548374623        0.7509210131       -0.3654152016
 C          3.7021262632       -0.0858329414       -3.5570489932
 C          0.6982001488       -1.3646208110        2.7130839722
 C         -1.2575056580       -1.5911007522       -1.2542953451
 C          0.1324214473        0.9181565623        3.2858966154
 C         -1.8271572762        0.6296645299       -2.0337863696
 C          0.1926910377        2.6835439925        0.2108227678
 C          0.2221219901        0.2309086333       -4.9148390161
 C          2.4162469771        1.8616842808       -0.2831960508
 C          2.3840656103       -0.4467641410       -4.0626987120
 C          2.4244187378        0.2365714796        3.1493010389
 C         -3.5384885944       -0.8614530087       -1.2759498390
 C          1.9030330325        4.1889357510       -0.5206489325
 C          0.6893143319       -2.0812622377       -4.4996078690
 C          0.6026177036       -4.7949559846        1.3385774324
 C          0.4716511833       -4.6883007675       -0.2029401742
 C         -3.0108661069        2.8205862918        3.1047902103
 C         -3.2258048455        2.9723259226        1.5621765062
 C         -1.6873281845        3.8987698924       -3.7346786931
 C         -1.4132517069        3.5117248147       -5.2256115962
 C          5.4291345547       -0.2064205011       -0.8606988150
 C          5.6688038659       -0.4870339348       -2.3670679664
 Br         4.2806512671        0.6730291102        3.2728077393
 Br        -5.3836353367       -1.2031997800       -0.9150898910
 Br         2.4486052207        5.9595904982       -0.9885248804
 Br         0.1090245092       -3.9020162962       -4.4948593053
 N          1.0835491889       -3.5349233221        1.8185457741
 N         -0.5453153031       -3.7265496961       -0.4858898672
 N         -2.0978459177        1.7402569309        3.2633592948
 N         -2.2078551447        2.7389260078       -3.0847748714
 N         -1.9676032521        3.3335035933        0.9925926153
 N         -0.4048212323        2.5078817346       -5.1853220349
 N          4.5411394656        0.9076225202       -0.7638017630
 N          4.4224343508       -0.9111068790       -2.9289098521
 H          0.2176408279       -7.5324415543        1.5377734157
 H          1.9146170174       -7.9951973465        1.3748284933
 H          0.7198070679       -8.0825635783       -0.8201405588
 H          2.0259974302       -6.8943427681       -0.8378072767
 H         -5.0351298266        4.5367820936        3.8958990962
 H         -6.3205581555        3.3270448877        3.9678536718
 H         -5.9866768132        2.7955639270        1.5761873862
 H         -6.3078183308        4.5211979716        1.7749196341
 H         -1.2760857802        6.6234931906       -4.0015861862
 H         -2.9429924529        7.0487530766       -4.4027543916
 H         -1.5544467872        6.7401743589       -6.4552616078
 H         -2.8705899604        5.5641775572       -6.3793777938
 H          8.7132971318       -0.6713708124        0.1205047689
 H          7.4167798269       -1.8703613885        0.1216245154
 H          8.7308603747       -2.0463067894       -1.9678298423
 H          8.4365813600       -0.3394467322       -2.3148955554
 H          1.6665604645       -5.9589231889        2.7898745126
 H          2.5822950732       -5.6062865177        1.3216665153
 H         -0.0204391931       -5.9482606682       -1.8662917168
 H         -0.9376689695       -6.2870534975       -0.3959847397
 H         -4.6940141894        1.5371112873        3.4094068016
 H         -4.1789568072        2.4162989334        4.8521491053
 H         -3.8757841584        5.0080782444        1.6424810199
 H         -4.4109345023        4.1268626895        0.2083091543
 H         -3.6441249806        4.6891555452       -4.0791158296
 H         -2.8534019885        5.3051324063       -2.6246294741
 H          0.0316399628        5.0518783586       -5.5632235154
 H         -0.7516060867        4.4549041370       -7.0294473660
 H          7.1219534090        1.0805493071       -0.6216671036
 H          6.5640575186        0.3314091928        0.8766709522
 H          6.2983853334       -2.5147758226       -2.1046326775
 H          6.8682377295       -1.7661741947       -3.5991204467
 H         -1.3070290321       -0.6017065443        2.8978597737
 H          0.1656313823       -0.1491430556       -1.9581367974
 H          0.7873644402        0.6336739552        0.3789603629
 H          1.8159397063        1.5823576196       -4.5067107997
 H          2.7870025281       -1.8151617402        2.6036670300
 H         -2.8918703583       -2.8061273294       -0.6066734348
 H          1.8022516754        2.2318682884        3.6280547329
 H         -3.9039288231        1.1320223703       -2.0138948802
 H         -0.1109039517        4.7848729100       -0.0293894754
 H         -1.1914725537       -1.3599282733       -5.2343486985
 H          3.8354514229        3.3238174273       -0.9272171717
 H          2.6424501957       -2.5422721384       -3.7173025056
 H         -0.8006028375       -2.9066976082        2.4068955104
 H          0.7857814294       -2.3279693545       -1.2400784424
 H         -0.4685351705        2.9940108215        3.5346947801
 H         -0.3153265296        2.0954167010       -2.5389152114
 H         -1.4441197612        1.3511435386        0.6940635803
 H         -1.7622748637        0.9593332395       -5.4283150485
 H          2.9595853760       -0.2290556821       -0.0539371576
 H          4.0113642859        0.9540238491       -3.7316281473
 H         -0.3986811921       -5.0284181616        1.7384593143
 H          1.4521328751       -4.3806047699       -0.6071449261
 H         -2.5987223213        3.7749642969        3.4759962617
 H         -3.5713329164        1.9920263876        1.1944914112
 H         -0.7190323487        4.2047379669       -3.3053821023
 H         -2.3609970921        3.1359488111       -5.6488560457
 H          4.9969607684       -1.1171812932       -0.4099272519
 H          6.0244073681        0.4518991442       -2.8241134658
 C         -3.8427400092       -5.6990174292        9.8053089302
 C         -5.2940854026       -5.5904339058        9.3330950550
 O         -3.4536786413       -4.5226596774       10.4948782601
 C         -4.3178506404       -4.2784046033       11.5922878664
 C         -5.7691113630       -4.1697961638       11.1199859031
 O         -6.1579020489       -5.3458976518       10.4302494857
 H         -3.1629981409       -5.7947546434        8.9585217476
 H         -5.3835572455       -4.7711712759        8.6050663732
 H         -4.2281506025       -5.0978803266       12.3199279141
 H         -5.8749934660       -3.3012633111       10.4539222960
 H         -5.6290423830       -6.5254451448        8.8838103242
 H         -3.9828708471       -3.3435761821       12.0419547415
 H         -6.4487273821       -4.0741213429       11.9668207932
 H         -3.7367168192       -6.5673288537       10.4715179196