142
-211.13171861
 C          4.1111261329       -6.5195335472        2.8144672189
 C          3.6334400565       -6.8930748955        1.4148975573
 C         -5.2771077653        2.0806966749        4.8048685190
 C         -5.8271975367        1.7517224178        3.4211010327
 C         -4.9519862969        3.1036549442       -4.2064361717
 C         -4.9028663819        2.3789853484       -5.5477479782
 C          7.4824926848        0.2676073775       -1.6824361406
 C          7.4839726381       -0.3523980244       -3.0759664004
 C          4.1325142920       -5.0044410324        2.9810832679
 C          2.2519917855       -6.3065188773        1.1505636203
 C         -3.8980651215        1.4586898859        4.9913863692
 C         -4.8697875729        2.2492368933        2.3442107860
 C         -4.8190864227        2.1094448309       -3.0581848717
 C         -3.6081525140        1.5845957689       -5.6775354473
 C          6.2114872856        1.0793459637       -1.4639061567
 C          6.2515801017       -1.2288085679       -3.2675830442
 C          0.7151008187       -0.1781217280        3.6370571645
 C         -0.8544528728       -1.7100867498       -0.6594679785
 C          0.6137234305        1.0966255578        0.1783846471
 C          0.3602711516       -1.1792968270       -4.0919565561
 C          3.0144957528       -0.1431499544        2.9206396027
 C         -1.7252492067       -3.3113494283        0.9126640235
 C          1.7869166032        1.9246269116        3.1562247671
 C         -3.2024915429       -1.7017554774       -0.1242910735
 C         -0.6947280075        3.0200986608       -0.4428330137
 C         -0.7661961903       -3.2526969349       -3.6078144912
 C          1.5022136709        2.6860601390       -1.3963558252
 C          1.6230684906       -3.0711280488       -3.2994087823
 C          1.8949093340       -2.3181156818        3.3218606197
 C          0.6919392507       -3.3361287735        0.3592710481
 C         -0.6120435183        1.9084100320        3.7213052042
 C         -2.3074406406       -0.0567822461       -1.7520660789
 C         -1.6116721263        1.3826764492        1.1806906658
 C         -2.1074063982       -1.2894950631       -4.2520116499
 C          2.8589931321        0.7102204980       -0.7636591286
 C          2.7808535746       -0.9180641703       -3.7056654936
 C          1.8813189032       -0.8611607982        3.3122290937
 C         -0.6461601560       -2.7831571794        0.2016824777
 C          0.6530306594        1.2115294905        3.5432716041
 C         -2.1247598855       -1.1646337400       -0.8273425537
 C         -0.5567416762        1.8431286826        0.2915744002
 C         -0.8173794103       -1.9222418819       -4.0217955534
 C          1.6464672842        1.5103436896       -0.6574014350
 C          1.5766884866       -1.7385820670       -3.7177462616
 C          2.9490492064        1.2339853316        2.8609715966
 C         -2.9800789720       -2.7596246255        0.7380738487
 C          0.3352493012        3.4157460610       -1.2762916643
 C          0.4547645424       -3.8047133613       -3.2630799470
 C          2.7504030459       -4.4049617357        2.7251935045
 C          2.2652253464       -4.7841401215        1.3022704417
 C         -2.9283379489        1.9618151125        3.9253436735
 C         -3.4952871881        1.6101761216        2.5097845110
 C         -3.5203531195        1.3175420982       -3.1700150734
 C         -3.4714731099        0.5711991351       -4.5441335036
 C          4.9667649491        0.2072703226       -1.6411790859
 C          4.9682712589       -0.4264052909       -3.0561698749
 Br         4.4941445103        2.2179999254        2.3169806377
 Br        -4.4532357321       -3.4718031301        1.7249833800
 Br         0.1268048716        5.0145370827       -2.3017576515
 Br         0.5145178331       -5.6246562179       -2.6846129943
 N          2.8290970833       -2.9768932869        2.7854604470
 N          0.9348814951       -4.2872826008        1.1509719775
 N         -1.6754756155        1.2919209624        4.0234774116
 N         -3.4473189367        0.3260177083       -2.1447445703
 N         -2.5819971416        2.1146709416        1.5343263354
 N         -2.2032535496       -0.0739921288       -4.5918339963
 N          3.8034004243        1.0286338891       -1.5363740407
 N          3.8391280989       -1.3027563470       -3.1344108457
 H          3.4403282286       -6.9574217356        3.5569860472
 H          5.1120816626       -6.9182643490        2.9877865245
 H          3.5906382980       -7.9782442492        1.3100156117
 H          4.3386508319       -6.5105462071        0.6737553812
 H         -5.1993810358        3.1645908525        4.9122417837
 H         -5.9525683730        1.7074765669        5.5764642721
 H         -5.9564233885        0.6709225545        3.3254824174
 H         -6.8025098314        2.2217034935        3.2858947810
 H         -4.1365933535        3.8286800339       -4.1546090599
 H         -5.8932191502        3.6470779009       -4.1097875208
 H         -4.9692931073        3.0995794029       -6.3644285194
 H         -5.7549447214        1.6998982077       -5.6267056705
 H          8.3507249730        0.9167946206       -1.5593250564
 H          7.5432266619       -0.5225130810       -0.9308045478
 H          8.3832368637       -0.9541849934       -3.2177614796
 H          7.4867465892        0.4405349720       -3.8271487378
 H          4.4479308562       -4.7356200535        3.9913328331
 H          4.8373468294       -4.5571207719        2.2781336869
 H          1.9176025285       -6.5538281451        0.1412838621
 H          1.5258217073       -6.7153337182        1.8547937468
 H         -3.9586808078        0.3710177254        4.9229945712
 H         -3.4959364380        1.7132527225        5.9741363593
 H         -4.7571231851        3.3318273967        2.4143545048
 H         -5.2502908592        2.0039677206        1.3510265857
 H         -5.6544382537        1.4074335127       -3.0640612055
 H         -4.8239991989        2.6322640714       -2.1001338025
 H         -2.7477541050        2.2550563758       -5.6470912683
 H         -3.5842037244        1.0475902227       -6.6280201378
 H          6.1594526959        1.9011107042       -2.1797481532
 H          6.1975408412        1.5069171142       -0.4595732708
 H          6.2617394022       -2.0554553776       -2.5551481286
 H          6.2365307483       -1.6518812349       -4.2741248474
 H         -0.1744979108       -0.7103567879        3.9362392266
 H         -0.0231686876       -1.2982215853       -1.2139451227
 H          0.7207673095        0.1880801672        0.7537026838
 H          0.2983016271       -0.1509959314       -4.4128951520
 H          3.9146488248       -0.6814884118        2.6708753210
 H         -1.5549234330       -4.1411249017        1.5794955876
 H          1.7543849978        3.0007903053        3.0765362843
 H         -4.1831296266       -1.2760276642       -0.2639067570
 H         -1.6042760276        3.5914185857       -0.3538245789
 H         -1.6699576561       -3.8401477726       -3.5469753859
 H          2.3066589163        2.9978262650       -2.0427391734
 H          2.5711275398       -3.4963595533       -3.0115416706
 H          1.0261855880       -2.8006774948        3.7905186812
 H          1.4733635787       -2.8680912102       -0.2606460913
 H         -0.5979641577        2.9901785353        3.5225020420
 H         -1.3783286538        0.4202426843       -2.0975405487
 H         -1.5064299987        0.3454179945        1.5296017516
 H         -2.9908808409       -1.9154826989       -4.0584566914
 H          2.8926687542       -0.1869504891       -0.1253119949
 H          2.6955664216        0.0635280929       -4.1918598050
 H          2.0125745280       -4.8035346787        3.4419372127
 H          2.9585947472       -4.3288629568        0.5729859043
 H         -2.8292806345        3.0581456178        3.9747261495
 H         -3.5636069111        0.5108770927        2.4612646670
 H         -2.6473535506        1.9902624278       -3.1461766856
 H         -4.3071316556       -0.1500786508       -4.5578626707
 H          4.9597064986       -0.6117643174       -0.9002702411
 H          4.8973589087        0.3975045919       -3.7863017929
 C         -2.6067713524        5.4708079798        2.1669663433
 C         -1.3070671935        6.1659937617        2.5738183730
 O         -3.4959172894        5.4062458069        3.2721584345
 C         -3.7648418152        6.7045823090        3.7739307863
 C         -2.4648098880        7.4020901920        4.1776775078
 O         -1.5691802114        7.4628291193        3.0805331242
 H         -2.4303577974        4.4375963194        1.8587459348
 H         -0.7950985359        5.5715001163        3.3459349229
 H         -4.2764067181        7.2967532459        3.0020590857
 H         -1.9939669635        6.8525614253        5.0063643259
 H         -0.6491174750        6.3036489719        1.7158431710
 H         -4.4190536949        6.5727259667        4.6358971668
 H         -2.6512802685        8.4335664835        4.4760243746
 H         -3.0805088018        6.0331756074        1.3497599130