142
-211.13407782
 C          2.8864426513       -6.6660145973        2.9368906185
 C          2.1405375772       -6.9117013783        1.6295013712
 C         -3.3252036920        4.2947775280        5.6838251868
 C         -4.1585767669        4.0600562468        4.4281157978
 C         -4.1350750463        5.0436270753       -3.1995682269
 C         -4.4245171845        4.3442912939       -4.5238185473
 C          7.4377282874       -0.9259179408       -2.4099842133
 C          7.0643674053       -1.5352909591       -3.7574414576
 C          3.3441859999       -5.2145468591        3.0202746439
 C          0.9485599712       -5.9695929525        1.5139745657
 C         -2.1445646188        3.3313633747        5.7270270288
 C         -3.2973588097        4.2184227199        3.1800994824
 C         -4.1293339557        4.0368233187       -2.0546474169
 C         -3.3965276675        3.2489057619       -4.7832058944
 C          6.4669313267        0.1904034810       -2.0444945500
 C          5.6342943318       -2.0617703479       -3.7229782130
 C          1.5462219235        0.3946064661        3.8421560803
 C         -1.0237641217       -0.6946121448       -0.0500819873
 C          1.3407600981        1.6556897611        0.3547335980
 C         -0.0965177503       -0.4647560719       -3.6693383178
 C          3.6390268434       -0.2466782236        2.8376963528
 C         -2.0951120410       -2.0486039437        1.6256996161
 C          3.1011551697        2.0908623675        3.1303855659
 C         -3.2100107850       -0.0880736007        0.7541886046
 C          0.5195544676        3.8673013143       -0.1300439695
 C         -1.6344888981       -2.1396930398       -2.8693756509
 C          2.4007763738        2.9735800854       -1.3582801950
 C          0.7334963198       -2.6139515548       -2.9649999462
 C          2.0104878420       -1.9992772419        3.4885134292
 C          0.1542785847       -2.6853763605        0.8038417666
 C          0.8963479801        2.7763958985        3.9937873600
 C         -2.1196089305        1.2921746324       -0.9933082006
 C         -0.5716121622        2.5158324177        1.6399374676
 C         -2.5029197173        0.0847287724       -3.4466106671
 C          3.2629835868        0.7035375949       -0.8620170778
 C          2.3361133638       -0.8568653340       -3.6631678840
 C          2.4118913426       -0.6009899833        3.4048137220
 C         -1.0023051404       -1.8003267033        0.7938139837
 C          1.8736398229        1.7413553488        3.6914802296
 C         -2.1201885175        0.1632816625       -0.0767429899
 C          0.4351311601        2.6842562751        0.6032569817
 C         -1.3988902171       -0.8583641450       -3.3663675578
 C          2.3266733424        1.7923050890       -0.6179192380
 C          0.9732289890       -1.3251502038       -3.4497486882
 C          3.9644772781        1.0894893581        2.7220336127
 C         -3.1743709834       -1.1887452985        1.5884509003
 C          1.4959791390        3.9858229859       -1.1018558579
 C         -0.5640539539       -2.9978967225       -2.6947762304
 C          2.1590980607       -4.2558058531        2.9105046533
 C          1.3936512494       -4.5075198515        1.5858436530
 C         -1.2613933712        3.4900767273        4.4921580875
 C         -2.1170630955        3.2525533406        3.2036803478
 C         -3.0958141380        2.9412224163       -2.2956476535
 C         -3.3913378628        2.2221899331       -3.6537976024
 C          5.0281133811       -0.3272433741       -1.9963653888
 C          4.6485815020       -0.9503534485       -3.3648462990
 Br         5.6391108162        1.5766750855        1.9417414735
 Br        -4.6645230255       -1.5248804513        2.7266719798
 Br         1.5874278284        5.5954375400       -2.1268866458
 Br        -0.8955976084       -4.7536389551       -2.0284186886
 N          2.6405556915       -2.9081787674        2.8793427479
 N          0.2359920525       -3.6709616867        1.5865177972
 N         -0.2433799587        2.4955174526        4.4675304071
 N         -3.1640463875        1.9521082658       -1.2679655219
 N         -1.2635187163        3.4783990157        2.0816783442
 N         -2.3403608283        1.2788221951       -3.8349319982
 N          4.1454318932        0.7703719875       -1.7605539826
 N          3.3338436025       -1.5006695947       -3.2335874779
 H          2.2278578422       -6.8887510442        3.7793079683
 H          3.7539700249       -7.3246764383        3.0036842238
 H          1.7898671710       -7.9438735612        1.5851738888
 H          2.8159135997       -6.7487371968        0.7868327362
 H         -2.9555630898        5.3227477248        5.6893947037
 H         -3.9412920221        4.1530656380        6.5731686405
 H         -4.5789157173        3.0521510766        4.4534314685
 H         -4.9864250093        4.7698470199        4.3908292739
 H         -3.1618201089        5.5365503710       -3.2537384113
 H         -4.8898401212        5.8078474673       -3.0076755189
 H         -4.3984089504        5.0666043555       -5.3412071751
 H         -5.4240995813        3.9046022466       -4.4934287255
 H          8.4515120988       -0.5243564339       -2.4474899707
 H          7.4097464240       -1.6989069417       -1.6388979799
 H          7.7462184015       -2.3515550408       -4.0017966804
 H          7.1535347035       -0.7760699294       -4.5376355227
 H          3.8558500768       -5.0289140749        3.9669149701
 H          4.0419763124       -4.9919758926        2.2112254584
 H          0.4252913859       -6.1276384576        0.5691258680
 H          0.2419677995       -6.1522187448        2.3249673852
 H         -2.4987738712        2.3000425988        5.7676741414
 H         -1.5355230521        3.5142533091        6.6146948786
 H         -2.9099961834        5.2362450070        3.1117550668
 H         -3.8874017852        4.0201977173        2.2835468116
 H         -5.1109131002        3.5711675002       -1.9524774610
 H         -3.8909269340        4.5344553954       -1.1129708114
 H         -2.3968121382        3.6790062310       -4.8625641772
 H         -3.6169867875        2.7330882323       -5.7200036342
 H          6.5179689940        0.9930547181       -2.7817803094
 H          6.7177733733        0.6123800109       -1.0694135026
 H          5.5420200286       -2.8559388326       -2.9801572482
 H          5.3557196690       -2.4751749231       -4.6945137383
 H          0.5904819094        0.1462593737        4.2770533025
 H         -0.1840496729       -0.5008612199       -0.7027359924
 H          1.2797287752        0.7445614345        0.9330072473
 H          0.0634437386        0.5343901889       -4.0440920212
 H          4.3039478647       -1.0256819369        2.5005698483
 H         -2.0731605402       -2.9113067648        2.2721068589
 H          3.3685555286        3.1294468940        3.0061847131
 H         -4.0544409412        0.5816408774        0.7292590408
 H         -0.1827942587        4.6597557305        0.0730057655
 H         -2.6336980689       -2.4397115305       -2.5925138068
 H          3.1661766146        3.0695294419       -2.1113790502
 H          1.5692692118       -3.2765332972       -2.8057419344
 H          1.1111245039       -2.2029465478        4.0861289755
 H          0.9482279977       -2.4366218127        0.0810267223
 H          1.1870881687        3.8046639824        3.7333957928
 H         -1.1443296296        1.5281584466       -1.4441466623
 H         -0.6832658731        1.4901041851        2.0211788399
 H         -3.4758186337       -0.2941192385       -3.1026288288
 H          3.1477388751       -0.1767791532       -0.2096663336
 H          2.4344713618        0.1061979094       -4.1831123215
 H          1.4473059928       -4.4164284842        3.7378200628
 H          2.0738099323       -4.2673896983        0.7496444597
 H         -0.8491572481        4.5122559609        4.4306944083
 H         -2.4654835031        2.2072166942        3.2448521480
 H         -2.0833115559        3.3692061091       -2.3798617125
 H         -4.3774858032        1.7347539592       -3.5593470881
 H          4.9238057475       -1.1110916507       -1.2254694798
 H          4.6803510801       -0.1424282438       -4.1154475556
 C         -4.8061500314       -3.8082574301       -0.8185219967
 C         -5.7205809674       -4.3187916252       -1.9324030783
 O         -4.4132142326       -2.4664286516       -1.0755694559
 C         -5.5576835086       -1.6351040804       -1.1957572162
 C         -6.4669278353       -2.1414624122       -2.3159241006
 O         -6.8555970244       -3.4810374903       -2.0723132483
 H         -3.8891455860       -4.3953637994       -0.7662537236
 H         -5.1665433495       -4.3500408393       -2.8822414995
 H         -6.1120117781       -1.6365084566       -0.2473856016
 H         -5.9385607587       -2.0811263225       -3.2797209350
 H         -6.1006758384       -5.3120824861       -1.6954975974
 H         -5.1870331922       -0.6311325707       -1.4065218902
 H         -7.3873165853       -1.5593036124       -2.3622104226
 H         -5.3353541094       -3.8540921588        0.1427900770