142
-211.12899522
 C          3.0831460744       -6.9328316722        2.0472591690
 C          2.7779509686       -7.0337957838        0.5561776725
 C         -5.2408799227        2.6545105424        3.9977487139
 C         -5.5817420971        2.5946467616        2.5122354813
 C         -3.3096208584        4.8315801251       -4.6584926268
 C         -3.1429852063        4.2677905795       -6.0659354791
 C          8.0826031797       -0.2152805189       -0.7765979960
 C          8.2276663664       -0.6282789745       -2.2376589828
 C          3.2999495823       -5.4778344518        2.4468880457
 C          1.5564917928       -6.1931726885        0.2039526744
 C         -3.9914136703        1.8329649190        4.2946201219
 C         -4.4038290207        3.0751526769        1.6719368447
 C         -3.4900774934        3.7024807734       -3.6499869234
 C         -1.9569149676        3.3115637290       -6.1201703983
 C          6.9173482121        0.7528479294       -0.6119828551
 C          6.9345113424       -1.2588370231       -2.7413324362
 C          0.5222606034       -0.3019504177        3.3969488440
 C         -0.5226012528       -0.9520604716       -1.2862903165
 C          1.1773204638        1.4245497978        0.1948416371
 C          1.3196440119       -0.1813546513       -4.3807479607
 C          2.8902500939       -0.5298688816        3.0206371797
 C         -1.8480894128       -2.5556449328       -0.0756297296
 C          1.9296685869        1.6522476523        3.4141893500
 C         -2.8961491697       -0.6123281020       -1.0622229883
 C          0.2670864176        3.6097775660       -0.2478999382
 C         -0.1249550421       -2.1092168729       -4.4012673341
 C          2.5287700444        3.0766729338       -0.9178750359
 C          2.1839688500       -2.3326293613       -3.7273194181
 C          1.4364607909       -2.5357980767        2.9095612951
 C          0.5920708384       -2.9254067337       -0.3177880557
 C         -0.5104119173        1.9346863675        3.6196864289
 C         -1.5328893255        1.0389829988       -2.3147740599
 C         -1.1256849807        1.9077872421        0.9003525621
 C         -1.0820564055        0.1009239271       -4.9146213100
 C          3.4775842232        0.8318380309       -0.4602828708
 C          3.6584766306       -0.3456575456       -3.6130330993
 C          1.6230390703       -1.1081917325        3.1320651030
 C         -0.6086754078       -2.1389042413       -0.5646517466
 C          0.6628194889        1.0795970436        3.5188756615
 C         -1.6574561491       -0.1857708712       -1.5395179960
 C          0.1162829949        2.3233823547        0.2685234169
 C          0.0619530980       -0.7419140462       -4.6006976202
 C          2.3843576794        1.7915292410       -0.3921297889
 C          2.3766346355       -0.9632445716       -3.9290060265
 C          3.0205833864        0.8353110577        3.1748449048
 C         -2.9651161252       -1.7831606919       -0.3299051108
 C          1.4684777576        3.9590822291       -0.8366537953
 C          0.9424887133       -2.8806796061       -3.9776517366
 C          2.0747361811       -4.6300555102        2.1082679759
 C          1.7685761179       -4.7283232194        0.5916572198
 C         -2.8011849108        2.3140341367        3.4686097549
 C         -3.1639147669        2.2319015046        1.9489541263
 C         -2.3050333641        2.7427455212       -3.6853768098
 C         -2.1328840959        2.1643973490       -5.1285502359
 C          5.6107348083        0.1258362920       -1.1024282699
 C          5.7562603409       -0.2976070793       -2.5865436664
 Br         4.7512093710        1.6296700105        3.0165009368
 Br        -4.6562423086       -2.3407958397        0.3613284779
 Br         1.6612738912        5.7123201137       -1.5712171730
 Br         0.6749382978       -4.7513613738       -3.6972866126
 N          2.3431225857       -3.2555666004        2.4052478770
 N          0.5658778353       -3.9991049392        0.3433157967
 N         -1.6811748790        1.4540329144        3.6483623085
 N         -2.5312408243        1.6369525659       -2.8101448899
 N         -2.0449935549        2.7203508138        1.2086494967
 N         -0.9660081327        1.3496467993       -5.0851746286
 N          4.5700772281        1.1012139836       -1.0297273951
 N          4.5469032782       -0.9643379759       -2.9631879558
 H          2.2488390453       -7.3458608311        2.6186071718
 H          3.9758238006       -7.5129155685        2.2871638737
 H          2.5915620101       -8.0729881298        0.2809052510
 H          3.6383378085       -6.6825680267       -0.0176280903
 H         -5.0698621349        3.6931255725        4.2905046493
 H         -6.0738161027        2.2662432686        4.5855035209
 H         -5.8270475384        1.5666002972        2.2372360364
 H         -6.4548545149        3.2153346474        2.3057680342
 H         -2.4256584796        5.4162371519       -4.3939693024
 H         -4.1756833969        5.4943079560       -4.6211736139
 H         -2.9867009953        5.0798325652       -6.7778437030
 H         -4.0520160207        3.7354975154       -6.3553431438
 H          8.9999743727        0.2617933620       -0.4284426318
 H          7.9091477627       -1.1011542324       -0.1617072411
 H          9.0459350495       -1.3421711797       -2.3461984634
 H          8.4637221981        0.2500848879       -2.8424106984
 H          3.4929091377       -5.4003787605        3.5188495767
 H          4.1614682452       -5.0653125431        1.9190429326
 H          1.3529594222       -6.2449351733       -0.8672539611
 H          0.6764408507       -6.5638176073        0.7317298545
 H         -4.1673264330        0.7818870572        4.0615066202
 H         -3.7331319187        1.9053470917        5.3530372421
 H         -4.1734697723        4.1174584530        1.8982102042
 H         -4.6399968711        3.0048013041        0.6086553947
 H         -4.3984802480        3.1387934995       -3.8685693087
 H         -3.5775756446        4.1059435968       -2.6396036292
 H         -1.0334281193        3.8396127805       -5.8772794163
 H         -1.8517082739        2.8908802690       -7.1223890295
 H          7.0975048946        1.6633324544       -1.1855454664
 H          6.7970018649        1.0339536660        0.4360016448
 H          6.7129777715       -2.1667793444       -2.1777746898
 H          7.0271648576       -1.5305842024       -3.7948594514
 H         -0.4672895651       -0.7239624487        3.4797163646
 H          0.4345077423       -0.6231902663       -1.6655458702
 H          1.0610082291        0.4321381674        0.6068003178
 H          1.4425727428        0.8788802731       -4.5392669301
 H          3.7383079432       -1.1627707103        2.8139035280
 H         -1.9053672792       -3.4735321623        0.4869383057
 H          2.0546718142        2.7206973223        3.5056581547
 H         -3.7700824770       -0.0152655743       -1.2671654464
 H         -0.5585608767        4.3000153799       -0.1819331020
 H         -1.0935133084       -2.5569340220       -4.5656892401
 H          3.4666117154        3.3521972747       -1.3724841077
 H          3.0104484839       -2.9307601949       -3.3784755239
 H          0.4467992274       -2.9337423913        3.1732670729
 H          1.5207252544       -2.5191659754       -0.7496698990
 H         -0.3200310709        3.0178639797        3.6090142914
 H         -0.5038844937        1.4039047937       -2.4494556563
 H         -1.2081790330        0.8291322479        1.0995079237
 H         -2.0580390994       -0.4058742295       -4.9418536791
 H          3.2839380066       -0.1413021085        0.0185814525
 H          3.7849233809        0.6937895725       -3.9457683701
 H          1.1851522401       -4.9969499192        2.6478149486
 H          2.6268490258       -4.3030623569        0.0418924793
 H         -2.5601247390        3.3670530188        3.6950659930
 H         -3.3574269474        1.1688061798        1.7303266584
 H         -1.3668779501        3.2681961664       -3.4426285967
 H         -3.0406913047        1.5802606056       -5.3599836759
 H          5.3697270655       -0.7762374641       -0.5124110384
 H          5.9187246572        0.6196715776       -3.1773610240
 C         -7.4486563299       -0.6490854439        5.6934681903
 C         -8.6456347286       -1.3326308370        6.3562030255
 O         -7.4739203616        0.7480175063        5.9372423229
 C         -7.4918453094        1.0120611199        7.3299928959
 C         -8.6899177952        0.3282654966        7.9913959386
 O         -8.6627744865       -1.0682145997        7.7495228033
 H         -7.4810542385       -0.7724630693        4.6111099415
 H         -9.5775450651       -0.9668262520        5.9013806277
 H         -6.5603339999        0.6451321350        7.7849186905
 H         -9.6224012662        0.7525750404        7.5914692309
 H         -8.5816948983       -2.4157192559        6.2517846858
 H         -7.5555016549        2.0952522514        7.4352994458
 H         -8.6602537710        0.4512370866        9.0741280361
 H         -6.5158408492       -1.0732849779        6.0917338530