142
-211.13105577
 C          4.3170450127       -6.3524600986        2.8975162769
 C          3.7054831507       -6.7446085340        1.5563448141
 C         -4.6964515363        2.4395122428        5.2665850086
 C         -5.3352532243        1.9347815991        3.9771577662
 C         -5.1244399562        2.9136405661       -4.1352938002
 C         -5.1267514939        2.0605635827       -5.3994619683
 C          7.5678293925        0.0761276002       -2.0441185280
 C          7.4415543590       -0.5639880752       -3.4227478545
 C          4.4079013599       -4.8353643897        3.0160639879
 C          2.3295264945       -6.1103019783        1.3924166101
 C         -3.2925560641        1.8663997092        5.4230949485
 C         -4.4722354534        2.3129267412        2.7786861804
 C         -4.9058679959        2.0455107094       -2.9013625590
 C         -3.8213150709        1.2822188487       -5.5168827112
 C          6.3333050625        0.9134664511       -1.7327659890
 C          6.1832903473       -1.4212627145       -3.4957616195
 C          1.1975962028        0.1004675159        3.8289494213
 C         -0.7761927189       -1.5479369676       -0.4184425165
 C          0.8768243686        1.0665992735        0.3381817915
 C          0.2572568808       -1.3267925615       -3.9038857307
 C          3.4300048312        0.0712148354        2.9258556442
 C         -1.5365387671       -2.9686909910        1.3696237084
 C          2.2453244129        2.1641280915        3.1639465509
 C         -3.0640485533       -1.4154467198        0.3195072032
 C         -0.4233975988        3.0176722204       -0.2094601086
 C         -0.8474651287       -3.3719325455       -3.2711775721
 C          1.6952347353        2.6253009353       -1.3052342725
 C          1.5560085864       -3.1938459782       -3.1098242772
 C          2.3102053056       -2.0680484855        3.4961185949
 C          0.8135463927       -3.1365748129        0.5969522732
 C         -0.1104385685        2.1957465751        3.8948082356
 C         -2.2859387828        0.0429733049       -1.5309738454
 C         -1.2679587156        1.4230883711        1.4889909485
 C         -2.2174807880       -1.4365730141       -3.9320213556
 C          3.0441939469        0.6228791950       -0.7523465157
 C          2.7000682798       -1.0700650946       -3.6701054402
 C          2.3251207737       -0.6125205574        3.4396311504
 C         -0.5161438378       -2.5467699693        0.5154383346
 C          1.1393756647        1.4843339890        3.6721206337
 C         -2.0430448231       -0.9790514341       -0.5234784921
 C         -0.2678190355        1.8391832612        0.5189765050
 C         -0.9172300378       -2.0595014020       -3.7366969476
 C          1.8596157807        1.4503400462       -0.5691678779
 C          1.4910018251       -1.8784150230       -3.5771821086
 C          3.3739493617        1.4453833051        2.8111983445
 C         -2.7875578311       -2.3930620068        1.2575446739
 C          0.5583918947        3.3853606232       -1.1103929061
 C          0.3889706218       -3.9179774669       -2.9766772643
 C          3.0307251458       -4.1917349607        2.8604925391
 C          2.4151633354       -4.5855160228        1.4941609458
 C         -2.4111162375        2.2485546534        4.2370897882
 C         -3.0686741400        1.7330449996        2.9134165725
 C         -3.5969423883        1.2684984014       -3.0027895927
 C         -3.6077625910        0.3899341468       -4.2967589246
 C          5.0633800721        0.0617373694       -1.7912166836
 C          4.9355977874       -0.5928655738       -3.1905244918
 Br         4.8794234681        2.3820909203        2.0996596354
 Br        -4.1772637319       -2.9567710682        2.4404124988
 Br         0.3253743800        4.9918151271       -2.1182451621
 Br         0.4743563355       -5.7159330494       -2.3373318116
 N          3.1602444621       -2.7661117603        2.8764615550
 N          1.0968441497       -4.0382473033        1.4321199055
 N         -1.1464372115        1.6007121593        4.3134083844
 N         -3.4499225315        0.3809134513       -1.8921770541
 N         -2.2377585651        2.1601771478        1.8333869629
 N         -2.3367676427       -0.2497587138       -4.3545073891
 N          3.9276030922        0.9070338058       -1.6062536504
 N          3.7907117534       -1.4512554306       -3.1608070035
 H          3.6981484215       -6.7437410665        3.7080315431
 H          5.3140454087       -6.7851794157        2.9957636811
 H          3.6121500343       -7.8295812103        1.4890922618
 H          4.3576408601       -6.4118742285        0.7458716300
 H         -4.6430289697        3.5303391272        5.2412357341
 H         -5.3046302649        2.1489304586        6.1247084570
 H         -5.4416927748        0.8484401155        4.0231933991
 H         -6.3306137796        2.3662798245        3.8603235559
 H         -4.3278220773        3.6578124688       -4.1984999862
 H         -6.0713387096        3.4463652620       -4.0381373113
 H         -5.2516518337        2.6947485657       -6.2785850784
 H         -5.9649126727        1.3606453798       -5.3664892554
 H          8.4539396464        0.7115197834       -2.0048976112
 H          7.6786926559       -0.7040698978       -1.2878361674
 H          8.3156293769       -1.1835888753       -3.6301747721
 H          7.3937216314        0.2177271414       -4.1841051794
 H          4.8181615727       -4.5519519780        3.9875356669
 H          5.0655296392       -4.4344474708        2.2428703437
 H          1.9005499595       -6.3737428400        0.4240228958
 H          1.6520673720       -6.4688842653        2.1688964885
 H         -3.3327815301        0.7777320177        5.4881340327
 H         -2.8268266544        2.2425261176        6.3363015057
 H         -4.3932648705        3.3986133220        2.6999559529
 H         -4.9146819593        1.9285583369        1.8567224747
 H         -5.7237617836        1.3318582284       -2.7887300381
 H         -4.8760659387        2.6720163848       -2.0092050194
 H         -2.9767445705        1.9684406426       -5.5965011282
 H         -3.8307468109        0.6530490102       -6.4094445568
 H          6.2349424188        1.7254028808       -2.4549751665
 H          6.4109488666        1.3565556093       -0.7380944637
 H          6.2398275660       -2.2370861288       -2.7730994910
 H          6.0764884148       -1.8591141981       -4.4903818668
 H          0.3301949444       -0.4059831354        4.2229831289
 H          0.0106250467       -1.2158457456       -1.0805963142
 H          1.0047421577        0.1623393279        0.9160154059
 H          0.1812483124       -0.3127001381       -4.2645709925
 H          4.3004412816       -0.4893862497        2.6250130349
 H         -1.3258443187       -3.7383143065        2.0945810337
 H          2.2156030427        3.2356620371        3.0354509914
 H         -4.0444725230       -0.9773763982        0.2256374597
 H         -1.3077892771        3.6139526686       -0.0570213758
 H         -1.7486192047       -3.9508335465       -3.1356503835
 H          2.4634834928        2.9142689794       -2.0041753544
 H          2.5178218940       -3.6136608585       -2.8625249073
 H          1.4856690145       -2.5149272161        4.0686532124
 H          1.5492533302       -2.7450877690       -0.1238711782
 H         -0.1166759062        3.2597669366        3.6162472173
 H         -1.3813503904        0.4890030718       -1.9703352511
 H         -1.1160101671        0.4204393997        1.9145720166
 H         -3.0876532414       -2.0449357503       -3.6439219869
 H          3.1116478057       -0.2619879613       -0.1001653826
 H          2.5917181457       -0.1026664961       -4.1797011976
 H          2.3435216956       -4.5468744413        3.6472418966
 H          3.0637795274       -4.1818793720        0.6964852632
 H         -2.3180948300        3.3450651876        4.1535286249
 H         -3.1026821088        0.6331541916        2.9862040793
 H         -2.7386146565        1.9540693756       -3.0926657449
 H         -4.4329827565       -0.3366069729       -4.1944781014
 H          5.1031043579       -0.7450136385       -1.0379789876
 H          4.8172999378        0.2209138059       -3.9259986916
 C         -6.1102504866        4.9556277529        0.3083906705
 C         -5.8595473406        5.9364498901        1.4551882805
 O         -5.1299699107        5.1077495456       -0.7045786656
 C         -3.8247438795        4.9460104822       -0.1746759730
 C         -3.5804339703        5.9291139724        0.9709551971
 O         -4.5559206582        5.7608834593        1.9858330361
 H         -7.0708811300        5.1522464803       -0.1679893374
 H         -5.9696745279        6.9674961727        1.0897550097
 H         -3.6977016291        3.9176464356        0.1955276685
 H         -3.6203461750        6.9596411688        0.5897689218
 H         -6.5514510656        5.7585841478        2.2784474972
 H         -3.1420027783        5.1407623063       -1.0023468374
 H         -2.6143761425        5.7453066785        1.4410861683
 H         -6.0850866506        3.9264919802        0.6919234799