142
-211.12705148
 C          2.5346052904       -6.5431482262        2.9282271784
 C          1.7068862644       -6.6971058221        1.6563609196
 C         -2.3881111184        4.9619179577        6.1208827835
 C         -3.3135561916        4.8317765682        4.9153235925
 C         -3.4658617102        5.8777732918       -2.8862760277
 C         -3.9352329715        5.2233410096       -4.1817693902
 C          7.2523339559       -1.3992562558       -2.4908815081
 C          6.7660401860       -1.9626494968       -3.8222686292
 C          3.1432045604       -5.1473681071        2.9988761779
 C          0.6157568885       -5.6347323014        1.6004837124
 C         -1.3176664264        3.8767807451        6.0910327608
 C         -2.5142602636        4.9073581527        3.6192461118
 C         -3.5082548986        4.8765736625       -1.7372189157
 C         -3.0795504273        4.0034278251       -4.5041526038
 C          6.4268074018       -0.1806435810       -2.0962290730
 C          5.2873519761       -2.3231108629       -3.7373082414
 C          1.9512091915        0.5962870173        3.9766907161
 C         -0.8663089195       -0.1941152050        0.0981564520
 C          1.6349731783        1.8541294395        0.5350703201
 C         -0.2175548881       -0.0847360861       -3.5198242854
 C          3.9170256838       -0.2272424993        2.8545061303
 C         -1.9619670402       -1.3883120281        1.8779728739
 C          3.6215028824        2.1461657771        3.1956606112
 C         -2.9120199756        0.6680764418        1.0317180768
 C          1.0263293630        4.1373290424        0.0705087618
 C         -1.9232230558       -1.5947993614       -2.7376143987
 C          2.7232140712        3.0380350695       -1.2561333745
 C          0.3772430406       -2.3237670275       -2.8608651713
 C          2.1638707140       -1.8255709845        3.5713295057
 C          0.1375678943       -2.2913364275        0.9177812806
 C          1.5444166795        3.0290425811        4.1830174272
 C         -1.7861199118        1.8986606754       -0.8044788855
 C         -0.0929374102        2.9201369805        1.9199569054
 C         -2.5327891450        0.7403426817       -3.2351215496
 C          3.3662998635        0.6915172506       -0.7788838380
 C          2.1536705027       -0.7501611473       -3.5790085250
 C          2.6932138261       -0.4708208962        3.4836716720
 C         -0.9115146650       -1.2820576555        0.9646037918
 C          2.3978137860        1.9076807460        3.8199365139
 C         -1.8576031704        0.7836436260        0.1267119184
 C          0.8607229838        2.9752929797        0.8230280363
 C         -1.5524308566       -0.3346086599       -3.2048935209
 C          2.5687994856        1.8770452391       -0.4963455876
 C          0.7517644611       -1.0638156554       -3.3353563530
 C          4.3623314517        1.0732125073        2.7326839394
 C         -2.9397058077       -0.4121655609        1.8944374816
 C          1.9489158694        4.1432874924       -0.9595033415
 C         -0.9521901538       -2.5682227984       -2.5827903336
 C          2.0576680998       -4.0727280345        2.9510920589
 C          1.2164051493       -4.2286004552        1.6583357196
 C         -0.4966695901        3.9526140364        4.8063961658
 C         -1.4482330536        3.8175699255        3.5719331003
 C         -2.6424454764        3.6590373900       -2.0440669255
 C         -3.1294095859        2.9841169326       -3.3689553145
 C          4.9416115101       -0.5345767651       -1.9950107489
 C          4.4477256349       -1.1069177343       -3.3483154441
 Br         6.0317229313        1.4094778788        1.8662100469
 Br        -4.3697533055       -0.5517358285        3.1538494686
 Br         2.1493233212        5.7266514003       -2.0101329096
 Br        -1.4667134310       -4.2875147331       -1.9281660219
 N          2.6681018382       -2.7784900233        2.9140557637
 N          0.1578804500       -3.2713609406        1.7112824897
 N          0.4104275650        2.8586890351        4.7189359209
 N         -2.7546119615        2.6878093222       -1.0031991180
 N         -0.6450680481        3.9524944111        2.3988723342
 N         -2.2277415821        1.9096109303       -3.6120102842
 N          4.1958607742        0.6538325948       -1.7280244483
 N          3.0830747573       -1.5036260317       -3.1755981907
 H          1.8966642655       -6.7060129867        3.7997586874
 H          3.3313947950       -7.2885320212        2.9497264611
 H          1.2487026650       -7.6867840941        1.6241445547
 H          2.3560659070       -6.5977623902        0.7836475664
 H         -1.9098650357        5.9440563033        6.1090046157
 H         -2.9633845052        4.8782110201        7.0442855724
 H         -3.8393957014        3.8754583466        4.9617641925
 H         -4.0596666318        5.6278134982        4.9294116601
 H         -2.4437621612        6.2420539236       -3.0121178079
 H         -4.1013120198        6.7321512992       -2.6479174817
 H         -3.8730152009        5.9372180371       -5.0046538588
 H         -4.9788925023        4.9174908738       -4.0784425159
 H          8.3029887454       -1.1145534578       -2.5649845979
 H          7.1643419220       -2.1642416698       -1.7163069452
 H          7.3419867437       -2.8512019818       -4.0862500491
 H          6.9142566348       -1.2187623775       -4.6082190778
 H          3.7143762932       -5.0257580935        3.9215437289
 H          3.8221032918       -4.9884455656        2.1593086167
 H          0.0356900683       -5.7288976776        0.6805171161
 H         -0.0684194477       -5.7502192937        2.4425222956
 H         -1.7779581060        2.8891159506        6.1490323950
 H         -0.6418146917        3.9847358426        6.9418882028
 H         -2.0222392484        5.8773541275        3.5314049052
 H         -3.1733698639        4.7836492338        2.7580711501
 H         -4.5314109953        4.5394455422       -1.5634939749
 H         -3.1437071896        5.3373847805       -0.8174052182
 H         -2.0404716060        4.2995315297       -4.6570963044
 H         -3.4315366434        3.5220896415       -5.4189079431
 H          6.5411048021        0.6106710071       -2.8386632062
 H          6.7586869882        0.2114867354       -1.1330290699
 H          5.1309629664       -3.1026918437       -2.9897684977
 H          4.9304248774       -2.7008386972       -4.6976657198
 H          1.0006667162        0.4338600475        4.4607567701
 H         -0.0571658980       -0.1081695078       -0.6132036394
 H          1.5126389535        0.9588616741        1.1280494073
 H          0.0480251125        0.8976136898       -3.8785284919
 H          4.4853898768       -1.0613693645        2.4754102457
 H         -1.9879980232       -2.2333261736        2.5469441323
 H          3.9799024659        3.1562586336        3.0658901677
 H         -3.6781054741        1.4265986522        1.0423597091
 H          0.4271620983        5.0025315207        0.3044448683
 H         -2.9530945224       -1.8034425494       -2.4897042001
 H          3.4470508545        3.0461799620       -2.0550265798
 H          1.1360056255       -3.0768102965       -2.7202880503
 H          1.2823318647       -1.9536219366        4.2145921099
 H          0.9070480535       -2.1396119062        0.1441081642
 H          1.9206052597        4.0264149314        3.9116787527
 H         -0.8278003435        2.0027580171       -1.3344415527
 H         -0.2933426492        1.9126199057        2.3135142838
 H         -3.5344787478        0.4884466782       -2.8571252713
 H          3.1953066624       -0.1652683479       -0.1077040418
 H          2.3469243125        0.1969335142       -4.1015068020
 H          1.3689656617       -4.1746236894        3.8068820284
 H          1.8827252377       -4.0566147539        0.7944694867
 H          0.0156391062        4.9269554751        4.7232736144
 H         -1.9069057354        2.8171960317        3.6363902810
 H         -1.5936369396        3.9554859981       -2.2095010105
 H         -4.1620508907        2.6321984626       -3.2002762542
 H          4.7794585388       -1.3038001662       -1.2192051733
 H          4.5475300195       -0.3063582710       -4.1007926588
 C         -8.2947938018       -8.4518840038       -4.4898082775
 C         -7.2339640594       -7.3763173617       -4.7320218475
 O         -8.5409838482       -8.6061250793       -3.1022341259
 C         -8.9386849475       -7.3738544662       -2.5249880278
 C         -7.8779682073       -6.2983090679       -2.7674837943
 O         -7.6336093007       -6.1436468187       -4.1558913546
 H         -7.9541481311       -9.4231157823       -4.8488579354
 H         -6.2786087295       -7.6949425732       -4.2906747505
 H         -9.8943428673       -7.0537240110       -2.9650386191
 H         -6.9443335162       -6.5797844154       -2.2594175610
 H         -7.1066870493       -7.1875461320       -5.7981199757
 H         -9.0650060210       -7.5630565200       -1.4589387512
 H         -8.2187442614       -5.3272918667       -2.4077455297
 H         -9.2276539941       -8.1697438096       -4.9993060720