142
-211.13120827
 C          0.5936956123       -7.1392203688        2.7125287501
 C         -0.0956797610       -7.1823653629        1.3530115062
 C         -3.9127461678        4.4321092203        5.3636280778
 C         -4.6795661176        4.3559311766        4.0476195703
 C         -4.1988696810        5.6932385768       -3.4530076398
 C         -4.6139298777        5.0677842804       -4.7805994342
 C          6.5575695470       -1.3880044214       -2.9353240147
 C          6.1002141342       -1.8955099638       -4.2987791163
 C          1.3660542139       -5.8336859242        2.8627254618
 C         -1.0326457225       -5.9914613013        1.1961177280
 C         -2.8644585777        3.3278126832        5.4300868333
 C         -3.7204487543        4.4625084765        2.8676080242
 C         -4.3193117528        4.6746107090       -2.3254024047
 C         -3.7591023099        3.8418556063       -5.0802144666
 C          5.7026792788       -0.2040716238       -2.4986882595
 C          4.6302702370       -2.2943102488       -4.2459492940
 C          0.5384135499        0.0039700631        3.7429315144
 C         -1.9672904040       -0.4877890907       -0.3573768477
 C          0.7474934062        1.5793504209        0.0805791285
 C         -0.9266815459       -0.2099170837       -4.0488893128
 C          2.6618771219       -0.9165918313        3.0814983648
 C         -3.2499338633       -1.6230195268        1.3345795069
 C          2.4011115318        1.4758558159        3.3466190132
 C         -4.0394847951        0.4677497367        0.4160913494
 C          0.1093005087        3.8702842049       -0.3025101039
 C         -2.6192145655       -1.7754791891       -3.3532310946
 C          1.8912850951        2.8751427136       -1.5964054875
 C         -0.2969552198       -2.4457337544       -3.4147017252
 C          0.6914125559       -2.4167687679        3.3946791319
 C         -1.1434796125       -2.6429479217        0.5340781738
 C          0.2039724908        2.4466672834        3.9179989343
 C         -2.7328846821        1.6461082047       -1.3249827002
 C         -1.1034569151        2.5408366910        1.3968178279
 C         -3.2652348645        0.5578011599       -3.8354990951
 C          2.5630059663        0.5228169754       -1.2194836932
 C          1.4585077458       -0.8138044588       -4.0607254371
 C          1.3186110680       -1.1012531435        3.4189963738
 C         -2.1301570835       -1.5706106912        0.5019977425
 C          1.0637752065        1.2937437229        3.6938787800
 C         -2.9151667436        0.5320436938       -0.4062696910
 C         -0.0672461703        2.6680232487        0.3820839133
 C         -2.2644750196       -0.4978658712       -3.7833059234
 C          1.7283933193        1.6741669714       -0.9030945840
 C          0.0606339403       -1.1683135391       -3.8544575713
 C          3.1749595506        0.3653353127        3.0607583298
 C         -4.1798983912       -0.6033449308        1.2786767241
 C          1.0807621478        3.9488568301       -1.2827443960
 C         -1.6286128841       -2.7272725536       -3.1850475550
 C          0.4348105859       -4.6300938563        2.7295982638
 C         -0.2846750499       -4.6639785416        1.3576238742
 C         -1.8841203541        3.4265964822        4.2631578800
 C         -2.6660543194        3.3602456665        2.9131330728
 C         -3.4604261003        3.4446930002       -2.6033075718
 C         -3.8758936671        2.8022663384       -3.9684029896
 C          4.2248564360       -0.5922236341       -2.4305890266
 C          3.7568633792       -1.1175761999       -3.8123262753
 Br         5.0067961062        0.6252298664        2.5907031997
 Br        -5.7033232885       -0.6701024084        2.4298646246
 Br         1.2963197386        5.5873367593       -2.2410846028
 Br        -2.1215659045       -4.4721968650       -2.5813835712
 N          1.1910178196       -3.4110048309        2.7960262542
 N         -1.2464134039       -3.6087583929        1.3381860132
 N         -1.0056294711        2.3064159206        4.2600837320
 N         -3.6646185052        2.4589192651       -1.5918658890
 N         -1.7230992986        3.5431341222        1.8553508055
 N         -2.9585698598        1.7358377791       -4.1819877013
 N          3.4478364126        0.5649760919       -2.1177598004
 N          2.4018643451       -1.5557426650       -3.6687181629
 H         -0.1539740729       -7.2172557778        3.5047131640
 H          1.2805257754       -7.9811921837        2.8123829888
 H         -0.6684367720       -8.1051519696        1.2495581085
 H          0.6559168913       -7.1614275135        0.5610275588
 H         -3.4221905379        5.4048458158        5.4446799687
 H         -4.6005662962        4.3298200753        6.2044715256
 H         -5.2175642106        3.4069036389        3.9947486548
 H         -5.4125210023        5.1624400757        3.9940858282
 H         -3.1650754745        6.0395012122       -3.5208264572
 H         -4.8296114517        6.5557801464       -3.2323579605
 H         -4.5014951861        5.7937322713       -5.5874095908
 H         -5.6654577928        4.7754054502       -4.7334494461
 H          7.6034506864       -1.0802985714       -2.9808309582
 H          6.4728835446       -2.1919641044       -2.2010846837
 H          6.6991832290       -2.7574727915       -4.5966741936
 H          6.2390681654       -1.1117092876       -5.0470934951
 H          1.8602736860       -5.7881785289        3.8351372014
 H          2.1315317543       -5.7692769622        2.0885951909
 H         -1.5061546060       -6.0046492305        0.2125316794
 H         -1.8204980109       -6.0307197147        1.9499876280
 H         -3.3447818286        2.3486540171        5.3930699042
 H         -2.3004633575        3.3918351968        6.3629781218
 H         -3.2100850284        5.4269889209        2.8797519715
 H         -4.2655983960        4.3812921396        1.9258496738
 H         -5.3560394903        4.3535211549       -2.2121225544
 H         -3.9962793633        5.1146098936       -1.3803504585
 H         -2.7101006286        4.1270003671       -5.1755188966
 H         -4.0700646959        3.3805189972       -6.0198306012
 H          5.8083464766        0.6216307637       -3.2044573723
 H          6.0163958138        0.1526997916       -1.5155690773
 H          4.4891966962       -3.1093720001       -3.5345367520
 H          4.2906673919       -2.6374481920       -5.2254708018
 H         -0.4992193766       -0.1118219043        4.0151855207
 H         -1.1014415972       -0.4373787046       -1.0024652714
 H          0.6180620370        0.6545373360        0.6253051383
 H         -0.6752440654        0.7854860350       -4.3805942647
 H          3.2844144503       -1.7673742144        2.8587556523
 H         -3.3639865509       -2.4632840473        2.0001912082
 H          2.8246484000        2.4678990266        3.3003765155
 H         -4.7704988708        1.2582800777        0.3641921021
 H         -0.5240057818        4.7077354833       -0.0579131024
 H         -3.6510281372       -2.0144179094       -3.1438459976
 H          2.6493435730        2.9366647893       -2.3604365276
 H          0.4754590034       -3.1826317882       -3.2627453415
 H         -0.2837736119       -2.4739840842        3.8985161725
 H         -0.3175615485       -2.5576138987       -0.1892507080
 H          0.6566374054        3.4329412928        3.7391832136
 H         -1.7317482329        1.7293823920       -1.7728926508
 H         -1.3158254113        1.5139354546        1.7272837411
 H         -4.2783227463        0.2835992632       -3.5073290282
 H          2.3698877777       -0.3831854612       -0.6236070443
 H          1.6352775617        0.1536253446       -4.5512187586
 H         -0.3470573023       -4.6599781362        3.5069634614
 H          0.4750222429       -4.5475962931        0.5645905684
 H         -1.3391391115        4.3864957373        4.2858720078
 H         -3.1353395608        2.3639559195        2.8681441433
 H         -2.3969096815        3.7200414237       -2.6953740631
 H         -4.9160854361        2.4481552396       -3.8645949251
 H          4.0716038852       -1.4020796274       -1.6962403759
 H          3.8419834714       -0.2829639695       -4.5291792170
 C          6.6104066879       -2.9106640557        2.2906903897
 C          6.7303429795       -2.5845878288        0.8020786800
 O          5.2473624280       -3.0083580684        2.6668962287
 C          4.5848532075       -3.9965276530        1.8929855769
 C          4.7051244933       -3.6731988927        0.4039278115
 O          6.0626498106       -3.5599328689        0.0164769021
 H          7.0395159448       -2.1112654062        2.8945024843
 H          6.2935353014       -1.5946255146        0.6101500865
 H          5.0329098664       -4.9797761759        2.0951318100
 H          4.1841477038       -2.7269394826        0.1939889145
 H          7.7721786242       -2.5973217233        0.4832590914
 H          3.5399524654       -3.9843125552        2.2083971041
 H          4.2795721590       -4.4715857322       -0.2044547960
 H          7.1186552999       -3.8611318971        2.5065037981