142
-211.12903829
 C          0.6429799821       -6.6423902636        2.3908564772
 C         -0.0767063075       -6.5884190775        1.0474295299
 C         -2.4868305399        5.4087885780        5.8909760964
 C         -3.3100769831        5.5043844474        4.6103581948
 C         -2.6590651623        6.8734467679       -3.1285859882
 C         -3.1315626408        6.3587894562       -4.4845623746
 C          6.5822610088       -2.2236956112       -2.3041397998
 C          6.1282319824       -2.6158460239       -3.7064150412
 C          1.4691936653       -5.3791186085        2.6035617183
 C         -0.9622099751       -5.3508204903        0.9695752710
 C         -1.6277101142        4.1493506134        5.8804572107
 C         -2.3987149677        5.4901690313        3.3881889660
 C         -2.9576382302        5.8517735720       -2.0370159926
 C         -2.4703499063        5.0238018258       -4.8084514273
 C          5.9542433639       -0.8971598910       -1.8941517480
 C          4.6076652716       -2.7044290635       -3.7654915303
 C          1.1947242368        0.4320893745        3.8360655332
 C         -1.3733812920        0.3289759355       -0.2934550857
 C          1.3909344715        1.8634224795        0.4653100728
 C         -0.4228858290        0.4665271247       -3.8285183229
 C          3.0778129346       -0.6728803929        2.8186406977
 C         -2.8011985522       -0.7366920636        1.3250293284
 C          3.1668576275        1.6972696650        3.2770838427
 C         -3.3119691659        1.4917408776        0.5366425325
 C          1.2485903266        4.2383589140        0.0925023606
 C         -2.4213632925       -0.7560929840       -3.2686376736
 C          2.8308512690        2.9045818803       -1.1585007599
 C         -0.2776876947       -1.8702158933       -3.2626986593
 C          1.0220921108       -1.9686481179        3.3019060652
 C         -0.8120329468       -1.9458903517        0.4712318397
 C          1.1974559558        2.8871968959        4.1545942547
 C         -1.8456240457        2.5874905564       -1.1380917459
 C         -0.2320102987        3.1680854918        1.7707374398
 C         -2.5801156207        1.6692001165       -3.6732706721
 C          2.9934993418        0.4605750235       -0.7763827899
 C          1.7964033985       -0.6023084491       -3.7446540628
 C          1.7814124582       -0.7254463061        3.3377785193
 C         -1.6754358832       -0.7733379551        0.5002313564
 C          1.8719240318        1.6499695241        3.7918718905
 C         -2.1820864238        1.4625545796       -0.2798254940
 C          0.8092484946        3.0944700103        0.7577961794
 C         -1.8027631401        0.4397455266       -3.6311027704
 C          2.4015299384        1.7592485974       -0.4856069904
 C          0.3456193131       -0.6745825270       -3.6298427408
 C          3.7487762830        0.5328410391        2.8084321414
 C         -3.5954031190        0.3939845886        1.3282770346
 C          2.2460176206        4.1197625653       -0.8578036620
 C         -1.6479329104       -1.8910085199       -3.1007136587
 C          0.5902677453       -4.1309578033        2.5349999052
 C         -0.1430306774       -4.0739756928        1.1704784870
 C         -0.6962152786        4.1324742112        4.6713414611
 C         -1.5447002800        4.2267801107        3.3602302808
 C         -2.2895735718        4.5155037431       -2.3440374266
 C         -2.7779845799        3.9854393880       -3.7327122747
 C          4.4267503970       -0.9760984419       -1.9381585174
 C          3.9641681408       -1.3783085507       -3.3620639446
 Br         5.5181378223        0.6090503571        2.0919140970
 Br        -5.1274777728        0.4492817785        2.4687548030
 Br         2.8241357665        5.6842687950       -1.7900045317
 Br        -2.5012516311       -3.5235537952       -2.5941390814
 N          1.4121185648       -2.9628337322        2.6283380974
 N         -1.0259721248       -2.9521238054        1.2006800402
 N          0.0091301112        2.8982714223        4.5905478238
 N         -2.6480570421        3.5382933245       -1.3664046861
 N         -0.6311511614        4.2627445221        2.2632207075
 N         -2.0534309324        2.7822713764       -3.9664759083
 N          3.8854810264        0.3150015262       -1.6559159338
 N          2.5414179349       -1.5307734058       -3.3237304348
 H         -0.0925090416       -6.7364765411        3.1926265213
 H          1.2965110791       -7.5153357028        2.4301832000
 H         -0.6908339950       -7.4801068271        0.9164920921
 H          0.6591227436       -6.5596895225        0.2404928609
 H         -1.8425767647        6.2868929826        5.9766266383
 H         -3.1475417869        5.3895119280        6.7591427262
 H         -4.0003302511        4.6594210954        4.5575983233
 H         -3.9002296055        6.4221462146        4.6133498996
 H         -1.5835564388        7.0609670155       -3.1651775758
 H         -3.1575521999        7.8147532894       -2.8918962313
 H         -2.8883039718        7.0823713568       -5.2641924122
 H         -4.2164814181        6.2319069667       -4.4684456848
 H          7.6690999813       -2.1329881526       -2.2729550824
 H          6.2883052090       -3.0000248146       -1.5943449346
 H          6.5593820370       -3.5789817164       -3.9846505699
 H          6.4772171649       -1.8699846400       -4.4239985196
 H          1.9637520005       -5.4041797081        3.5768664467
 H          2.2407674575       -5.2989465311        1.8358381588
 H         -1.4596098981       -5.2963446742       -0.0005370959
 H         -1.7332262067       -5.3896060981        1.7403406677
 H         -2.2592165251        3.2602710032        5.8426688135
 H         -1.0212542637        4.0943112905        6.7868566327
 H         -1.7355170499        6.3566454151        3.3977650864
 H         -2.9904965349        5.5277928233        2.4718130804
 H         -4.0333084416        5.6898346701       -1.9509819640
 H         -2.5913663953        6.2077018367       -1.0723655968
 H         -1.3876890670        5.1434643332       -4.8736749342
 H         -2.8265978645        4.6451479767       -5.7687175387
 H          6.2758975607       -0.1017572065       -2.5681713608
 H          6.2605206155       -0.6246044653       -0.8824434682
 H          4.2480711004       -3.4812857839       -3.0885770063
 H          4.2786801585       -2.9587259988       -4.7751931172
 H          0.1927055707        0.4176722237        4.2360562080
 H         -0.5052720982        0.3046568731       -0.9368002023
 H          1.0569860670        0.9806575626        0.9918690454
 H          0.0360582416        1.4024963845       -4.1070622065
 H          3.5241567383       -1.5760546508        2.4345062176
 H         -3.0269436958       -1.5944280146        1.9378827805
 H          3.7031023099        2.6333374870        3.2347868609
 H         -3.9353641372        2.3713579056        0.5365922721
 H          0.7966032072        5.1880000276        0.3296796997
 H         -3.4887973869       -0.7920876627       -3.1108916025
 H          3.6130481738        2.8145628674       -1.8949170727
 H          0.3267619885       -2.7500841326       -3.1111637241
 H          0.0786981484       -1.9700707229        3.8651463643
 H          0.0365759307       -1.8919378001       -0.2294726596
 H          1.7630589665        3.8129282988        3.9726281830
 H         -0.8423515822        2.5473222921       -1.5875518623
 H         -0.6427055950        2.1984066594        2.0887245098
 H         -3.6365579192        1.5797161551       -3.3803326290
 H          2.6100736286       -0.3801561504       -0.1764539769
 H          2.1958773977        0.3215333533       -4.1853052719
 H         -0.1811297152       -4.1521715953        3.3232674147
 H          0.6193625118       -3.9748228626        0.3773670417
 H         -0.0152753264        5.0012898641        4.6868220347
 H         -2.1786440588        3.3254052716        3.3304127086
 H         -1.1958577299        4.6319839492       -2.4187458635
 H         -3.8649960211        3.8091213839       -3.6549323266
 H          4.0582517545       -1.7398593442       -1.2305180277
 H          4.2699917709       -0.5705296452       -4.0483365273
 C         -3.0455896687       -9.1105698778       -0.5999891090
 C         -3.8813016756      -10.3626637845       -0.8709958558
 O         -1.9577875794       -9.4142135578        0.2583624118
 C         -1.1534390845      -10.4418450649       -0.2966576357
 C         -1.9909107861      -11.6932385659       -0.5656427465
 O         -3.0769637543      -11.3906169258       -1.4252947108
 H         -3.6362282993       -8.3506465190       -0.0884350460
 H         -4.3311696129      -10.7155431813        0.0684174890
 H         -0.7058293003      -10.0891210888       -1.2368636588
 H         -2.3746646068      -12.0905389001        0.3853177906
 H         -4.6624962402      -10.1579326315       -1.6030938768
 H         -0.3713136498      -10.6458476610        0.4348707785
 H         -1.4013530745      -12.4553423757       -1.0755565742
 H         -2.6629441273       -8.7085230820       -1.5489161535