142
-211.13134245
 C          3.6106618531       -6.3570646933        3.4690938358
 C          2.6205359741       -6.8162975685        2.4036629465
 C         -2.7769211569        4.4822826096        6.3629747750
 C         -3.8550331335        4.0459740475        5.3760208817
 C         -5.5759083961        3.9856307548       -2.2579082516
 C         -6.1332304983        3.0946943792       -3.3635598771
 C          6.2365290300       -1.2123305046       -3.3808837468
 C          5.6124746540       -2.0240038655       -4.5113394571
 C          3.9463540988       -4.8821820679        3.2803608803
 C          1.3544002516       -5.9698223343        2.4547883366
 C         -1.5438725890        3.5952637637        6.2325641652
 C         -3.3188296411        4.0835061363        3.9493025950
 C         -5.2216291894        3.1535431571       -1.0304677342
 C         -5.1302834153        2.0058468409       -3.7280211553
 C          5.2826611157       -0.1136624313       -2.9280721304
 C          4.2837884860       -2.6210223044       -4.0630845967
 C          1.8743642604        0.6610902682        3.8683103328
 C         -1.3774461512       -1.1061866742        0.7404818319
 C          0.7319495861        1.3838894500        0.4329550678
 C         -1.4038476655       -1.3678326384       -2.9317959691
 C          3.7282208153        0.0305072741        2.4655934213
 C         -1.8942672331       -2.2193565035        2.8111996611
 C          3.0496666320        2.3447683305        2.6090190321
 C         -3.3527506332       -0.4838103167        1.9697654477
 C         -0.3595142377        3.4594062681       -0.1184265960
 C         -2.6154397765       -3.0194468239       -1.6654697405
 C          1.2580698389        2.4965622875       -1.6349054641
 C         -0.2779780342       -3.3576827473       -2.1770353109
 C          2.4697180496       -1.7230637408        3.6840103209
 C          0.1364231381       -2.8760463716        1.5501037312
 C          1.0530728958        2.9955181178        3.8971107292
 C         -2.8240804754        0.6624166841       -0.1656665575
 C         -0.8974066313        2.3203718595        2.0178438906
 C         -3.7447736465       -0.9145159029       -2.2704356959
 C          2.3969291319        0.3684245751       -1.0804087098
 C          0.9990796528       -1.6207016131       -3.4067962345
 C          2.7066021203       -0.3245640436        3.3505785834
 C         -1.0610726336       -2.0607502703        1.7023553101
 C          2.0262204629        1.9938552560        3.4884251249
 C         -2.5162461566       -0.3144681046        0.8671625609
 C         -0.1744951991        2.3903752979        0.7575512289
 C         -2.5861770139       -1.7928275641       -2.3280306892
 C          1.4535698259        1.4300485072       -0.7558400334
 C         -0.2458864433       -2.1320364092       -2.8472495674
 C          3.8871587600        1.3572905876        2.1210873115
 C         -3.0214134645       -1.4281685081        2.9239088289
 C          0.3555238959        3.4876858251       -1.3014875922
 C         -1.4626593667       -3.7824888111       -1.6104124328
 C          2.6854911331       -4.0203969537        3.3346641147
 C          1.6772230090       -4.4877674705        2.2536980525
 C         -0.9849786595        3.6398317281        4.8128310758
 C         -2.0923698058        3.1884953186        3.8039617841
 C         -4.2063505469        2.0706063500       -1.3809828300
 C         -4.7805772808        1.1531588263       -2.5111092870
 C          3.9468785534       -0.7002544967       -2.4677690443
 C          3.3147446318       -1.5263327246       -3.6173605977
 Br         5.2789242687        1.8452314285        0.9065667266
 Br        -4.1524888113       -1.6350591367        4.4499202152
 Br         0.0782838862        4.9374242951       -2.5153543115
 Br        -1.5077785133       -5.4554841749       -0.6886549426
 N          3.0238766218       -2.6602238048        3.0446248364
 N          0.4816741939       -3.7238898601        2.4175498580
 N          0.0830906486        2.7111246137        4.6590449719
 N         -3.9459303654        1.2413040081       -0.2481316325
 N         -1.5429767922        3.3001403463        2.4906660397
 N         -3.7463433642        0.2251396488       -2.8220478534
 N          3.0528708152        0.3687315780       -2.1573935564
 N          2.1175843860       -2.1279358957       -3.1086649171
 H          3.1752912306       -6.5071308351        4.4595444301
 H          4.5260309763       -6.9483324175        3.4101011387
 H          2.3602422456       -7.8642943286        2.5598586720
 H          3.0784210295       -6.7262791291        1.4161697112
 H         -2.4998751264        5.5203326169        6.1650920264
 H         -3.1590681652        4.4239671952        7.3833600003
 H         -4.1778885106        3.0302422128        5.6153133426
 H         -4.7224622878        4.7030731374        5.4558388225
 H         -4.6812688402        4.4977132050       -2.6193412773
 H         -6.3106717722        4.7440977747       -1.9834222343
 H         -6.3560432545        3.6928010887       -4.2485752210
 H         -7.0635871598        2.6326753824       -3.0253739273
 H          7.1732584095       -0.7625512680       -3.7138582270
 H          6.4598018903       -1.8706060430       -2.5383449739
 H          6.2881003604       -2.8255594112       -4.8151322618
 H          5.4447413361       -1.3767829745       -5.3749663018
 H          4.6334728258       -4.5442152289        4.0588519177
 H          4.4288818140       -4.7252729414        2.3141560422
 H          0.6528269818       -6.2823646899        1.6790289755
 H          0.8605721735       -6.0852820581        3.4208401944
 H         -1.7944425195        2.5607466252        6.4728257203
 H         -0.7640538258        3.9227880576        6.9231863923
 H         -3.0391111124        5.1017750511        3.6743426023
 H         -4.0814995447        3.7413073287        3.2475027513
 H         -6.1139991023        2.6738150647       -0.6252321758
 H         -4.7954999211        3.7877062434       -0.2510429950
 H         -4.2118150804        2.4516725704       -4.1134108277
 H         -5.5402564823        1.3543651357       -4.5025776023
 H          5.0862201175        0.5778143689       -3.7487374565
 H          5.7171985707        0.4551809015       -2.1037339136
 H          4.4400408019       -3.3064298506       -3.2280393417
 H          3.8228205875       -3.1821083443       -4.8785873025
 H          1.0748649066        0.4107501390        4.5482820999
 H         -0.7378213228       -0.9810923491       -0.1217004581
 H          0.8814209755        0.5631119739        1.1200267707
 H         -1.3993962045       -0.4142662974       -3.4360814622
 H          4.3682882984       -0.7412152155        2.0690111876
 H         -1.6403775410       -2.9597042117        3.5525810209
 H          3.1788470856        3.3724655062        2.3045177134
 H         -4.2350990071        0.1296346297        2.0565256684
 H         -1.0595216399        4.2361075078        0.1443278144
 H         -3.5230441376       -3.3624087376       -1.1919533099
 H          1.8230794682        2.5221505781       -2.5522537889
 H          0.6248156197       -3.9439862522       -2.1153238113
 H          1.7548171588       -1.9058889323        4.4981692950
 H          0.7151042609       -2.7012808269        0.6291444606
 H          1.1807017456        3.9963986199        3.4591562412
 H         -2.0106214326        0.8573604945       -0.8801138819
 H         -0.8342498883        1.3539162049        2.5393251623
 H         -4.5934693094       -1.2768320513       -1.6719653139
 H          2.4977085403       -0.4256895996       -0.3234582259
 H          0.9089142962       -0.7565002937       -4.0753132081
 H          2.1873255636       -4.1175358029        4.3142045836
 H          2.1376379446       -4.3228396394        1.2634773514
 H         -0.6874353150        4.6669082965        4.5384988574
 H         -2.3378148316        2.1430488353        4.0531278127
 H         -3.2793830414        2.5161860734       -1.7781404658
 H         -5.6794323758        0.6558966931       -2.1070374340
 H          4.0946297086       -1.3747835600       -1.6056231451
 H          3.0961542554       -0.8342456418       -4.4466185673
 C          0.3612885573        2.4666315633       -6.6228921145
 C          1.6705325819        1.8201814788       -6.1693547141
 O         -0.0278400072        1.9606476623       -7.8889466544
 C         -0.1609583187        0.5506740868       -7.8446118101
 C          1.1455202061       -0.0995871093       -7.3854412512
 O          1.5357701412        0.4079519106       -6.1198043939
 H          0.4800072156        3.5431953499       -6.7446055277
 H          2.4747155926        2.0863808666       -6.8695694313
 H         -0.9718228764        0.2783363390       -7.1528563163
 H          1.9369834859        0.1045861847       -8.1204052648
 H          1.9376423280        2.1374615126       -5.1620140940
 H         -0.4164606932        0.2354455343       -8.8563148818
 H          1.0232332490       -1.1759641357       -7.2604424984
 H         -0.4291431102        2.2602156050       -5.8867012350