142
-211.12667901
 C         -1.7973510250       -6.4979059754        1.3571296126
 C         -2.2583175261       -6.2233408438       -0.0706281079
 C         -3.0845600337        5.6897958310        5.3442025875
 C         -3.6187937727        6.0388690553        3.9588748587
 C         -1.3972530903        7.7568972421       -3.2306095391
 C         -1.6841917822        7.4433177674       -4.6954259366
 C          5.9920014597       -2.8290662292       -1.9577333359
 C          5.7245700830       -3.0293762501       -3.4458684312
 C         -0.7809732274       -5.4502800731        1.7964005346
 C         -2.8530913463       -4.8244099801       -0.1773968850
 C         -2.4848128413        4.2883084940        5.3457811775
 C         -2.5094908666        5.9339859238        2.9184076839
 C         -2.0680573305        6.7303685732       -2.3248733409
 C         -1.2081243222        6.0371355266       -5.0416239192
 C          5.5240948652       -1.4478248677       -1.5159651115
 C          4.2413514857       -2.8478799372       -3.7468539392
 C         -0.1047228656        0.2244081591        3.4531171617
 C         -1.8811096966        0.8934248336       -0.9283642703
 C          1.0895185047        1.8899464601        0.3200783798
 C         -0.1458962151        1.1391009913       -4.2387093818
 C          1.6732314793       -1.1958468992        2.6642806113
 C         -3.7742887607        0.0386136939        0.2885240330
 C          2.1478192670        1.0714798105        3.3521808857
 C         -3.6890787239        2.3717296527       -0.3392572727
 C          1.4245758891        4.2722799215        0.2050500551
 C         -2.3782618946        0.2400052836       -4.1390905549
 C          2.9762119907        2.7733578157       -0.8862644026
 C         -0.4699559842       -1.2240499878       -3.9059817560
 C         -0.6529146045       -2.0534567478        2.6901140044
 C         -1.9298369421       -1.4978886255       -0.3249360307
 C          0.3253231803        2.5977421080        4.0041685614
 C         -1.7472429543        3.2557686841       -1.6017564575
 C         -0.5142516777        3.3673874266        1.4579578363
 C         -2.0792281671        2.6808830272       -4.3107866193
 C          2.6542378265        0.3196198589       -0.7614559438
 C          1.8303149033       -0.2988906034       -3.9257896088
 C          0.3201115680       -1.0017092441        2.9549110491
 C         -2.5375233465       -0.1741570503       -0.3232151664
 C          0.7977158967        1.2710102380        3.6372062018
 C         -2.4480804587        2.1654689267       -0.9407513187
 C          0.6773680775        3.1801269836        0.6445668552
 C         -1.5258030025        1.3355021252       -4.2695179101
 C          2.2373505772        1.6770998892       -0.4374341534
 C          0.3878186571       -0.1292320259       -4.0426349807
 C          2.5611697502       -0.1613328050        2.8786729790
 C         -4.3241090122        1.3060096459        0.2712108979
 C          2.5547972957        4.0478338827       -0.5591632577
 C         -1.8335454274       -1.0205319966       -3.9681443010
 C         -1.3677964946       -4.0425419328        1.7022064864
 C         -1.8396935672       -3.7616980250        0.2518345030
 C         -1.3592464512        4.1716473773        4.3211967569
 C         -1.9065607753        4.5329855515        2.9006625678
 C         -1.5943889372        5.3179707858       -2.6527713196
 C         -1.8854166443        4.9947112194       -4.1557235561
 C          4.0334221830       -1.2559080784       -1.8014103690
 C          3.7565290265       -1.4651692418       -3.3128471031
 Br         4.4112568680       -0.4226446618        2.4783336111
 Br        -6.0087126802        1.6001836996        1.1239278080
 Br         3.5568674741        5.5482971983       -1.1884837645
 Br        -3.0089052578       -2.5150647404       -3.7768867404
 N         -0.3557553107       -3.0811346850        2.0192354282
 N         -2.4747678930       -2.4827890958        0.2439661733
 N         -0.8989500993        2.8278492732        4.2285893553
 N         -2.3046704021        4.3595503801       -1.8684155820
 N         -0.8043675152        4.4753726093        1.9949741034
 N         -1.3354427444        3.7022513958       -4.3865690230
 N          3.6663659936        0.0852724100       -1.4764584059
 N          2.3410326712       -1.3744600000       -3.5055039507
 H         -2.6582990159       -6.4732731852        2.0288773714
 H         -1.3476550256       -7.4901432164        1.4217618478
 H         -3.0074695387       -6.9575348967       -0.3709499612
 H         -1.4092565775       -6.3102793152       -0.7520814259
 H         -2.3183960644        6.4131446165        5.6326196862
 H         -3.8896751863        5.7402651960        6.0789460926
 H         -4.4276074395        5.3528800149        3.6972764458
 H         -4.0228993529        7.0524078938        3.9584497986
 H         -0.3184713428        7.7416612061       -3.0597732710
 H         -1.7637668786        8.7543774099       -2.9830886387
 H         -1.1787751791        8.1657078506       -5.3383122543
 H         -2.7580422797        7.5193310966       -4.8811196503
 H          7.0581876774       -2.9323442211       -1.7504749384
 H          5.4618086781       -3.5929376543       -1.3848388667
 H          6.0375339027       -4.0289906943       -3.7520704316
 H          6.3039334650       -2.3035361517       -4.0207811487
 H         -0.4686439556       -5.6295227237        2.8272697103
 H          0.1064203009       -5.4961996121        1.1628334228
 H         -3.1611074928       -4.6166085499       -1.2038985689
 H         -3.7326297437       -4.7371921928        0.4623444070
 H         -3.2499154231        3.5490087221        5.1032931146
 H         -2.0826146037        4.0468326756        6.3318367963
 H         -1.7150161848        6.6496748707        3.1359127861
 H         -2.8999242520        6.1542247473        1.9232853409
 H         -3.1520013146        6.7679094174       -2.4447486504
 H         -1.8361333151        6.9377325955       -1.2787156776
 H         -0.1285631432        5.9583711926       -4.9034379922
 H         -1.4327484459        5.8045383239       -6.0846015242
 H          6.0775954928       -0.6726085341       -2.0480545537
 H          5.6940134626       -1.3094156368       -0.4465200315
 H          3.6539731018       -3.5998530076       -3.2172842204
 H          4.0516904357       -2.9637684830       -4.8159476415
 H         -1.1449954558        0.4008399200        3.6787670580
 H         -0.9238302263        0.7351815610       -1.4046186262
 H          0.5135920258        1.0455738924        0.6715905207
 H          0.4954633277        2.0008269613       -4.3401466396
 H          1.9932490681       -2.1500457809        2.2773571525
 H         -4.2738824549       -0.7937236285        0.7573622366
 H          2.8586714194        1.8724485061        3.4890232570
 H         -4.1219421845        3.3589512199       -0.3586655554
 H          1.1005240692        5.2668642667        0.4660830564
 H         -3.4490609044        0.3761184970       -4.1603013880
 H          3.8622976799        2.5988236101       -1.4749742105
 H         -0.0469075178       -2.2039511576       -3.7528510027
 H         -1.6633456406       -1.8784062718        3.0847727081
 H         -0.9684186215       -1.5788651195       -0.8566328462
 H          1.0853442513        3.3925580605        4.0211991814
 H         -0.6991768115        3.0491015753       -1.8636635362
 H         -1.1417374025        2.4727363527        1.5828913565
 H         -3.1725768176        2.7556674300       -4.2177872538
 H          2.0293441851       -0.4831206229       -0.3386891580
 H          2.4369766872        0.5766829047       -4.1954971068
 H         -2.2476729381       -3.9408573118        2.3598049086
 H         -0.9523820708       -3.7842897364       -0.4051523917
 H         -0.5427627231        4.8785021656        4.5498683857
 H         -2.6726286127        3.7786067218        2.6568281613
 H         -0.5041667282        5.2272882169       -2.5161917084
 H         -2.9807864320        5.0134872259       -4.2912948451
 H          3.4333836413       -1.9939156518       -1.2403667981
 H          4.2949610985       -0.6723034407       -3.8591236248
 C          4.6772840136      -13.2784359333        4.1116662480
 C          4.4373879165      -13.7151557455        5.5582972376
 O          3.9382499050      -14.0922076894        3.2161917066
 C          2.5555912613      -14.0491401833        3.5271650095
 C          2.3158865403      -14.4862446134        4.9736865619
 O          3.0546519679      -13.6719971710        5.8690721793
 H          5.7255686845      -13.3970810157        3.8372880850
 H          4.8142494960      -14.7382618693        5.7009872999
 H          2.1788542387      -13.0259060268        3.3850197708
 H          2.6196711843      -15.5359637492        5.0958445634
 H          4.9282890255      -13.0373754530        6.2568209018
 H          2.0646223680      -14.7267168348        2.8285217447
 H          1.2676006607      -14.3681859103        5.2483638543
 H          4.3740495673      -12.2285475455        3.9894482548