142
-211.12755866
 C         -0.1535414704       -6.7891198998        2.6869584100
 C         -1.0338123515       -6.7469804549        1.4420299215
 C         -2.4795541733        5.4420891439        6.0994662248
 C         -3.4450080058        5.5271344349        4.9215864042
 C         -3.6522036877        6.6898747752       -2.8134997867
 C         -4.2933824216        6.1637302664       -4.0936372467
 C          5.3841204706       -2.6134138809       -2.9076226168
 C          4.7417279301       -3.0519647639       -4.2197770722
 C          0.7340587767       -5.5514618418        2.7506884978
 C         -1.8828232256       -5.4815398727        1.4350355310
 C         -1.6588077578        4.1594700934        6.0250410270
 C         -2.6840720405        5.4558729024        3.6024084364
 C         -3.8521696545        5.6999947903       -1.6713864458
 C         -3.7132645557        4.8022899643       -4.4600943360
 C          4.8373043111       -1.2587969553       -2.4734101344
 C          3.2249248561       -3.1055053030       -4.0769383675
 C          0.7952615546        0.3055717658        3.7919446558
 C         -2.2513876544        0.1683320749        0.0289419381
 C          0.6501371370        1.6597367650        0.3571266069
 C         -1.6971221972        0.2048037366       -3.6224862347
 C          2.5042509747       -0.8958765062        2.5930686113
 C         -3.5073285765       -0.7928790075        1.8437802485
 C          2.7200706807        1.4838743198        2.9497394448
 C         -4.0349865664        1.4276404249        1.0451019641
 C          0.5027205616        4.0255727322       -0.0685157650
 C         -3.6404695758       -0.9391092994       -2.7758694109
 C          1.8956247375        2.6247992475       -1.4628485483
 C         -1.5423935544       -2.1163837241       -2.9980314924
 C          0.4857937252       -2.1037197361        3.3729694438
 C         -1.6806347241       -2.1029511541        0.7983014821
 C          0.9091374061        2.7673418014        4.0191382086
 C         -2.7453349603        2.4193039169       -0.8270205287
 C         -0.7782053658        3.0350688453        1.8101861486
 C         -3.7857364873        1.4761784372       -3.2380909337
 C          2.0659193410        0.1907434259       -1.0271695019
 C          0.4860665582       -0.9273887927       -3.7822621195
 C          1.2809421036       -0.8870922848        3.2686912057
 C         -2.4924503857       -0.8973051768        0.8908293380
 C          1.4978016112        1.4976102428        3.6204795956
 C         -3.0141748126        1.3312823351        0.1001979267
 C          0.1301047055        2.9103717025        0.6809258909
 C         -3.0414160824        0.2258361459       -3.2534679326
 C          1.5343781942        1.5082804946       -0.7066571252
 C         -0.9396824400       -0.9523764345       -3.4825055686
 C          3.2046542448        0.2852408375        2.4567973174
 C         -4.2565495329        0.3665353417        1.9035320833
 C          1.3722263714        3.8596116542       -1.1307476630
 C         -2.8814594811       -2.0906882142       -2.6654346681
 C         -0.1044727893       -4.2739057287        2.7490128476
 C         -1.0021656303       -4.2313219364        1.4857075348
 C         -0.8763492701        4.0847309098        4.7164414825
 C         -1.8704359354        4.1690193103        3.5111887302
 C         -3.2642451816        4.3368294307       -2.0214680245
 C         -3.9249746301        3.7954521490       -3.3324750399
 C          3.3165635609       -1.3081422101       -2.3128170798
 C          2.6655400380       -1.7493695890       -3.6487527797
 Br         4.8720873236        0.2771417871        1.5240242702
 Br        -5.6344681633        0.5154755782        3.2189270783
 Br         1.8514640814        5.3839156178       -2.1786397573
 Br        -3.7060239242       -3.6786214129       -1.9950557284
 N          0.7607139414       -3.1346582694        2.6977562433
 N         -1.8359476860       -3.0761377619        1.5852860310
 N         -0.2186060536        2.8285269175        4.5907297394
 N         -3.5367038196        3.3934695469       -0.9848446962
 N         -1.0922945974        4.1520329667        2.3140073400
 N         -3.2669863949        2.5660808568       -3.6194071264
 N          2.8365277401        0.0016019746       -2.0074094030
 N          1.2562708056       -1.8615539282       -3.4237744736
 H         -0.7844521798       -6.8303656642        3.5776220413
 H          0.4710332960       -7.6839173283        2.6746179315
 H         -1.6874076800       -7.6201535307        1.4143257052
 H         -0.4053708952       -6.7680166748        0.5489557724
 H         -1.8085828745        6.3040778287        6.0838293920
 H         -3.0339220952        5.4633388266        7.0390593510
 H         -4.1572307278        4.7006023440        4.9743730127
 H         -4.0080069075        6.4607215630        4.9667774494
 H         -2.5831744737        6.8424918651       -2.9780826621
 H         -4.0922657170        7.6509692655       -2.5428619769
 H         -4.1209805302        6.8636231420       -4.9128135085
 H         -5.3724131281        6.0717823203       -3.9496590202
 H          6.4665516231       -2.5431186487       -3.0244099890
 H          5.1753991331       -3.3547614273       -2.1334035691
 H          5.1131547899       -4.0364502337       -4.5091453783
 H          5.0073999769       -2.3452282960       -5.0090622805
 H          1.3460748673       -5.5661077972        3.6549257534
 H          1.4049953333       -5.5233328752        1.8903964763
 H         -2.4986617294       -5.4380682539        0.5347297881
 H         -2.5489855707       -5.4676505530        2.2990183041
 H         -2.3121678755        3.2876541613        6.0869237714
 H         -0.9517126641        4.1110079782        6.8557276209
 H         -2.0032113369        6.3035093750        3.5094699183
 H         -3.3782648312        5.4862529250        2.7607287906
 H         -4.9149519334        5.5742727704       -1.4583219197
 H         -3.3664237349        6.0631283132       -0.7639470384
 H         -2.6423043041        4.8863223911       -4.6517405752
 H         -4.1887488437        4.4163388589       -5.3641588064
 H          5.0794242349       -0.4968978842       -3.2159490262
 H          5.2788736657       -0.9543288140       -1.5226165261
 H          2.9423393212       -3.8469382372       -3.3277177819
 H          2.7623126377       -3.3908761166       -5.0239602680
 H         -0.1495660635        0.3389995854        4.3119585569
 H         -1.4681904820        0.0925137995       -0.7120016347
 H          0.3680769582        0.7992600833        0.9472049665
 H         -1.2526427349        1.1174959086       -3.9880845378
 H          2.8723898454       -1.8258770503        2.1904742425
 H         -3.6854713698       -1.6222594418        2.5090788164
 H          3.2750334499        2.3990606473        2.8081904592
 H         -4.6239365974        2.3296030996        1.0889921761
 H          0.0998314023        4.9905507553        0.1936931502
 H         -4.6801623234       -0.9380840189       -2.4849555996
 H          2.5785366611        2.4973464313       -2.2872421878
 H         -0.9465779380       -3.0087402397       -2.8921185533
 H         -0.3821203850       -2.0517123270        4.0446626859
 H         -0.9253098364       -2.1051170865       -0.0037619023
 H          1.4758845744        3.6682958279        3.7417968734
 H         -1.8047128722        2.3310746365       -1.3903566955
 H         -1.1681593342        2.0845098794        2.2030038616
 H         -4.8025507511        1.4249004306       -2.8217603461
 H          1.7495633666       -0.6242257080       -0.3566732860
 H          0.8485423141       -0.0313714458       -4.3048569364
 H         -0.7703833505       -4.2419885006        3.6278906101
 H         -0.3433403874       -4.1868016501        0.6003333411
 H         -0.1760563460        4.9334050384        4.6267129344
 H         -2.5253185353        3.2850659026        3.5814285333
 H         -2.1834898653        4.4157716106       -2.2237160132
 H         -5.0003904817        3.6550709929       -3.1263402112
 H          3.0329777717       -2.0406972641       -1.5364440831
 H          2.8981225724       -0.9758040987       -4.4001137724
 C          7.9443788355       -6.7162382389       -2.2451929588
 C          9.3401571296       -6.9495775538       -1.6634737890
 O          7.4904645951       -7.8694899402       -2.9342962700
 C          7.4935162395       -8.9985596817       -2.0765914562
 C          8.8909088453       -9.2315524174       -1.4984975813
 O          9.3416360116       -8.0793070950       -0.8062866016
 H          7.9596021036       -5.9099314219       -2.9782918982
 H         10.0579075553       -7.1084663528       -2.4813576746
 H          6.7786053330       -8.8388501546       -1.2563159732
 H          9.5911473716       -9.4687273658       -2.3126381113
 H          9.6539144431       -6.1028564852       -1.0528179114
 H          7.1774497575       -9.8454571109       -2.6858166429
 H          8.8813029425      -10.0416159814       -0.7689450075
 H          7.2436366363       -6.4737839244       -1.4333619759