142
-211.12877820
 C          5.2500305898       -5.8672185070        3.5638865353
 C          4.4126041114       -6.4789585629        2.4454078401
 C         -3.1776085416        3.5085701699        6.2595774230
 C         -4.1017222889        2.8960650515        5.2119164783
 C         -5.4723881850        2.6188970323       -2.5630464066
 C         -5.7969871492        1.6257189094       -3.6739718682
 C          7.2374490905       -0.1074510953       -3.0383411066
 C          6.8565440525       -0.9765368975       -4.2324624567
 C          5.3196368294       -4.3525732528        3.4067651962
 C          3.0125929224       -5.8771435018        2.4394125377
 C         -1.7915040583        2.8786368413        6.1817086990
 C         -3.5143191448        3.0712041397        3.8159945294
 C         -4.9880728486        1.8855860392       -1.3170133932
 C         -4.5724875907        0.7794230889       -4.0015331760
 C          6.0642974712        0.7739394281       -2.6272949565
 C          5.6384075669       -1.8302299708       -3.8994992306
 C          2.2286152553        0.6988621916        3.9602215240
 C         -0.4695246949       -1.5566888077        0.6300278217
 C          1.1454898193        1.2907232723        0.4733283660
 C         -0.2464450820       -1.7389326917       -3.0485043735
 C          4.2383830542        0.4596848037        2.6545198255
 C         -0.8705053852       -2.7721336058        2.6690555624
 C          3.1326548351        2.6034352096        2.7954246841
 C         -2.5816258333       -1.3238637068        1.7634750762
 C         -0.3015973910        3.1283286397       -0.1008692056
 C         -1.1512010078       -3.6418690073       -1.8813940343
 C          1.5423028702        2.5358975312       -1.5482762651
 C          1.2261750994       -3.4840150218       -2.2817456269
 C          3.2674218724       -1.5274886689        3.7743392797
 C          1.3017429457       -3.0327274732        1.5049853197
 C          0.9840766024        2.8373267719        3.9793707678
 C         -2.1790513040       -0.0800242415       -0.3430506929
 C         -0.7080702720        1.8537879387        1.9871751295
 C         -2.6592370432       -1.7944460207       -2.4999795536
 C          3.0466269315        0.6553484611       -0.9632838924
 C          2.1804489289       -1.4890835578       -3.4003569037
 C          3.2562303237       -0.1015919016        3.4749889871
 C         -0.0295095618       -2.4498676008        1.6023459738
 C          2.1480876087        2.0458981051        3.6100980646
 C         -1.7397546276       -0.9906147655        0.7030443050
 C          0.0459843275        2.0935342417        0.7666284467
 C         -1.3429977111       -2.4147891556       -2.5149655182
 C          1.8998738032        1.5062144115       -0.6759816910
 C          1.0376850013       -2.2558355960       -2.9213288473
 C          4.1643669982        1.8014614252        2.3404798391
 C         -2.1274056885       -2.2017193036        2.7302397302
 C          0.4491620016        3.3246603115       -1.2452579003
 C          0.1290039521       -4.1578299976       -1.7853085862
 C          3.9212318016       -3.7364780317        3.4067433168
 C          3.0697981502       -4.3576365137        2.2696770317
 C         -1.1831188301        3.0620639827        4.7937574321
 C         -2.1327812667        2.4317803861        3.7219453892
 C         -3.7613954769        1.0326891269       -1.6240990244
 C         -4.0901245511        0.0185332633       -2.7692614429
 C          4.8374757903       -0.0717199796       -2.2795992882
 C          4.4515092273       -0.9582768406       -3.4915293710
 Br         5.5025281940        2.5701335566        1.2140097551
 Br        -3.2711793512       -2.6297844452        4.1996515718
 Br        -0.0477713086        4.7242279391       -2.4470938090
 Br         0.3843532336       -5.8346474476       -0.9061146242
 N          4.0170099009       -2.3310566022        3.1524885672
 N          1.7489270341       -3.8256462551        2.3778243582
 N          0.0485523127        2.3567534993        4.6836688541
 N         -3.3878856219        0.2666884093       -0.4784469746
 N         -1.5524827379        2.6791219324        2.4409572957
 N         -2.8728072262       -0.6688198926       -3.0378038463
 N          3.7356462334        0.7958058314       -2.0101628502
 N          3.3638011375       -1.7940649582       -3.0826063919
 H          4.8022932545       -6.1122655959        4.5295667705
 H          6.2596159668       -6.2811559749        3.5456771523
 H          4.3400570151       -7.5594161428        2.5787516308
 H          4.8935953692       -6.2898042935        1.4832534925
 H         -3.0973228854        4.5848522605        6.0903393386
 H         -3.5902144409        3.3540727632        7.2578277741
 H         -4.2322699508        1.8315995657        5.4194930403
 H         -5.0830691133        3.3710272413        5.2558724616
 H         -4.6960773799        3.3066060415       -2.9055129342
 H         -6.3579656073        3.2065868090       -2.3168607000
 H         -6.1250035839        2.1559000675       -4.5690023271
 H         -6.6112934906        0.9729345288       -3.3504969087
 H          8.0914327590        0.5232325003       -3.2901214177
 H          7.5249785656       -0.7447637301       -2.1992647148
 H          7.6907633432       -1.6248528399       -4.5057733452
 H          6.6301407444       -0.3385191452       -5.0896225947
 H          5.8958552340       -3.9099583794        4.2218957595
 H          5.8105255615       -4.0924635475        2.4674390424
 H          2.4188010896       -6.2969686511        1.6252950406
 H          2.5012332666       -6.0984871659        3.3774742138
 H         -1.8488222657        1.8100190096        6.3949892593
 H         -1.1241090479        3.3341299855        6.9162185096
 H         -3.4228556946        4.1307642214        3.5716761621
 H         -4.1615681118        2.6072689586        3.0695668400
 H         -5.7733508932        1.2335215811       -0.9310761090
 H         -4.7250931637        2.5982108275       -0.5329917430
 H         -3.7591663207        1.4125217815       -4.3593245787
 H         -4.8076014030        0.0573035046       -4.7859474635
 H          5.7953617972        1.4496671933       -3.4406304099
 H          6.3268753340        1.3807923552       -1.7586923755
 H          5.8664317173       -2.5083910255       -3.0754225828
 H          5.3475657484       -2.4337762163       -4.7617751453
 H          1.4555172546        0.2871368163        4.5903160510
 H          0.1763631939       -1.3049095644       -0.1991732188
 H          1.4192302837        0.4970683558        1.1540257520
 H         -0.4168671864       -0.7901894769       -3.5333596711
 H          5.0314771238       -0.1690310098        2.2826670601
 H         -0.5203382617       -3.4630560668        3.4188655491
 H          3.0833418105        3.6447569961        2.5147174185
 H         -3.5653443270       -0.8850030880        1.8078690829
 H         -1.1512359898        3.7477335237        0.1374650740
 H         -1.9903771124       -4.1763300301       -1.4621771922
 H          2.1313946688        2.6942597227       -2.4371682639
 H          2.2258825293       -3.8769411193       -2.1882046758
 H          2.5591783227       -1.8586875210        4.5463774848
 H          1.8860292544       -2.7359154923        0.6193772964
 H          0.9421052758        3.8545504719        3.5631031572
 H         -1.3866060710        0.2762704291       -1.0175934294
 H         -0.4838605670        0.9048562855        2.4962653212
 H         -3.4394822035       -2.3367272485       -1.9456822271
 H          3.2692700226       -0.1130589290       -0.2058441457
 H          1.9426984252       -0.6152194523       -4.0225762875
 H          3.4025860067       -3.9445382098        4.3579700528
 H          3.5414594841       -4.0932680834        1.3067058259
 H         -1.0741987126        4.1330779948        4.5493276670
 H         -2.1838388125        1.3528869599        3.9423935181
 H         -2.9283922921        1.6572625214       -1.9861292043
 H         -4.8767874038       -0.6590244804       -2.3935873579
 H          5.0552113883       -0.7372389791       -1.4255686892
 H          4.1610442641       -0.2833647143       -4.3144443888
 C         -9.6200466762        3.5314719560       -7.3466359310
 C         -8.8740104956        2.9275541751       -6.1556469926
 O         -9.5894092966        4.9476012765       -7.2881355169
 C         -8.2519606735        5.4171339870       -7.2482080088
 C         -7.5064934381        4.8147098843       -6.0562543129
 O         -7.5369517982        3.3979506609       -6.1144977431
 H        -10.6725819950        3.2481839424       -7.3318011342
 H         -9.3871565381        3.2005870627       -5.2223998276
 H         -7.7381811240        5.1425693592       -8.1808509829
 H         -7.9744000839        5.1530923048       -5.1207351093
 H         -8.8135994777        1.8427447396       -6.2434625750
 H         -8.3120802877        6.5021076429       -7.1626975574
 H         -6.4541741585        5.0984350534       -6.0697151110
 H         -9.1539069172        3.1921101855       -8.2830654137