142
-211.13404155
 C          3.1588302110       -6.9298624417        3.2152256543
 C          2.5436908489       -7.3579789589        1.8868803662
 C         -4.9368278134        2.8763622505        5.0371200481
 C         -5.6404607354        2.5195031123        3.7320437713
 C         -5.3914346792        3.3197162453       -3.6063245514
 C         -5.4947297237        2.5715102636       -4.9312236031
 C          7.1088571942        0.0875015602       -2.4661296392
 C          6.9139310817       -0.6035575736       -3.8115998098
 C          3.3707538895       -5.4206664883        3.2383000644
 C          1.2242190990       -6.6320428936        1.6547557289
 C         -3.6110269503        2.1322161932        5.1454176639
 C         -4.7498035659        2.8527609966        2.5407912736
 C         -5.2331487477        2.3369597615       -2.4518597023
 C         -4.2636548802        1.6984924866       -5.1446727427
 C          5.9104648213        0.9725482866       -2.1465185120
 C          5.6324025939       -1.4284295409       -3.8007943327
 C          0.6171528886       -0.1534621175        3.5975218491
 C         -1.4597060498       -1.7627761893       -0.2159162391
 C          0.4434251062        1.2861668010       -0.0308550373
 C         -0.3127315744       -1.1803174271       -3.8773792749
 C          2.8358156584       -0.4850534410        2.7223853522
 C         -2.4012886403       -3.2450602006        1.4310099232
 C          1.8850242862        1.7373420258        2.8041880506
 C         -3.7686345498       -1.5231771366        0.4269829945
 C         -0.7397418695        3.3314990971       -0.4917635766
 C         -1.4344581542       -3.1998137653       -3.1952419481
 C          1.3536278549        2.8614017589       -1.6056485973
 C          0.9793694612       -3.0787673571       -3.1534970573
 C          1.4975438943       -2.4485227776        3.4299878805
 C         -0.0327453819       -3.5229545266        0.7639885934
 C         -0.4287179950        2.0892685263        3.5708175387
 C         -2.8130083163        0.0024358192       -1.2750809123
 C         -1.6716655762        1.7236546572        1.1468872093
 C         -2.7829103759       -1.2175051393       -3.7785282910
 C          2.5975346007        0.7760307239       -1.1191800230
 C          2.1419523054       -0.9842726517       -3.7973247007
 C          1.6599115950       -1.0102359052        3.2651154723
 C         -1.3133094433       -2.8369501001        0.6570189437
 C          0.7153057347        1.2159162658        3.3560783781
 C         -2.6808312414       -1.1038783820       -0.3381874051
 C         -0.6509650910        2.1184039754        0.1885316171
 C         -1.4949379425       -1.8839307807       -3.6517576496
 C          1.4513362939        1.6512104305       -0.9176798542
 C          0.9226694912       -1.7625809544       -3.6202461536
 C          2.9281314152        0.8759447021        2.5137114318
 C         -3.6048294828       -2.5787885323        1.3046504003
 C          0.2612614179        3.6745340523       -1.3795565010
 C         -0.1972009511       -3.7743275867       -2.9609740983
 C          2.0553972827       -4.6761209687        3.0142646308
 C          1.4199623903       -5.1152630939        1.6682066358
 C         -2.6949226454        2.4586698053        3.9686929408
 C         -3.4184487407        2.1126850767        2.6241768734
 C         -4.0025289147        1.4555218854       -2.6425706771
 C         -4.0948990333        0.6948683399       -4.0067055800
 C          4.6144722614        0.1607835041       -2.1258618886
 C          4.4163323044       -0.5577207266       -3.4868908751
 Br         4.5353331426        1.5923705917        1.7751090089
 Br        -5.0877051727       -3.1249427525        2.3784012636
 Br         0.1280685774        5.3271593535       -2.3200989681
 Br        -0.1226451679       -5.5743354219       -2.3213677098
 N          2.3117328922       -3.2712002305        2.9249783330
 N          0.1447472518       -4.4811787210        1.5648411925
 N         -1.5308996263        1.6407462945        4.0032754596
 N         -3.9392369370        0.4677837393       -1.6143269440
 N         -2.5533794609        2.5276437823        1.5683498182
 N         -2.8638122932       -0.0067206009       -4.1382592322
 N          3.5142909515        1.0525173961       -1.9405177531
 N          3.2582063771       -1.3899027906       -3.3684874580
 H          2.4945928196       -7.2165835185        4.0335867922
 H          4.1153952400       -7.4332409786        3.3652130389
 H          2.3686461155       -8.4349167906        1.8838297310
 H          3.2336585878       -7.1263722044        1.0726024989
 H         -4.7538641404        3.9528304348        5.0705224466
 H         -5.5693170990        2.6148903031        5.8868971638
 H         -5.8734496217        1.4523616472        3.7242038379
 H         -6.5787544787        3.0702532924        3.6495184510
 H         -4.5296475786        3.9903850360       -3.6332463604
 H         -6.2852053584        3.9251838617       -3.4477157714
 H         -5.5833658733        3.2808315087       -5.7556091523
 H         -6.3891646515        1.9443874110       -4.9274665275
 H          8.0133711494        0.6972573974       -2.4844874040
 H          7.2246937859       -0.6637958641       -1.6820644332
 H          7.7629663563       -1.2548238101       -4.0259926791
 H          6.8566403539        0.1477938581       -4.6023611550
 H          3.7887006779       -5.1079614847        4.1974336549
 H          4.0700050659       -5.1258336723        2.4540658459
 H          0.7949837274       -6.9167176487        0.6921404809
 H          0.5069515607       -6.8917203753        2.4348814636
 H         -3.7825490969        1.0546257462        5.1579303461
 H         -3.0962295166        2.4024514028        6.0696886801
 H         -4.5471038367        3.9244395068        2.5060663607
 H         -5.2419789584        2.5707818908        1.6082879877
 H         -6.1104988586        1.6922624243       -2.3787472936
 H         -5.1280553073        2.8743985548       -1.5077345512
 H         -3.3656751840        2.3166133882       -5.1939317880
 H         -4.3452582111        1.1466892239       -6.0834044661
 H          5.8098454819        1.7584486876       -2.8966090138
 H          6.0349634751        1.4479790816       -1.1716642546
 H          5.6958362432       -2.2132708980       -3.0452032691
 H          5.4770701682       -1.9060507966       -4.7703902775
 H         -0.3004239107       -0.5342342775        4.0185925203
 H         -0.6212068976       -1.4396779403       -0.8167668440
 H          0.5127636390        0.3506240515        0.5065633974
 H         -0.3834723279       -0.1633034683       -4.2306724046
 H          3.6419882405       -1.1563563494        2.4725452338
 H         -2.2762286232       -4.0745076313        2.1081490857
 H          1.9576849548        2.7902797735        2.5765879384
 H         -4.7107102175       -1.0095335948        0.3215259186
 H         -1.5878260966        3.9721459359       -0.3105871825
 H         -2.3410723064       -3.7581359745       -3.0166485102
 H          2.1386772103        3.1358567983       -2.2918102447
 H          1.9420306517       -3.5215080273       -2.9534856696
 H          0.6063968095       -2.7669704579        3.9886338021
 H          0.7626132243       -3.1556059781        0.0965985384
 H         -0.2855870442        3.1431884149        3.2928090619
 H         -1.8677172088        0.4017146671       -1.6708009672
 H         -1.6199566698        0.6791266869        1.4876839486
 H         -3.6656517152       -1.8097992193       -3.4970683201
 H          2.6147499992       -0.1359008526       -0.5013006716
 H          2.0201964447       -0.0177098202       -4.3058892383
 H          1.3311031731       -4.9106408841        3.8126675545
 H          2.1007640986       -4.8043713568        0.8566431280
 H         -2.4517990171        3.5350281224        3.9427318357
 H         -3.5737023855        1.0209568001        2.6202435564
 H         -3.0836386571        2.0640164275       -2.6806830783
 H         -4.9621386756        0.0146890679       -3.9472328488
 H          4.6530608411       -0.6129596626       -1.3395284105
 H          4.2833212887        0.2228311014       -4.2549142976
 C          3.7433857241        5.9390056528        1.6463407101
 C          2.9427075736        5.1013398156        0.6493275106
 O          2.9808667982        7.0472883387        2.0940140539
 C          1.7584641632        6.6196680831        2.6663028477
 C          0.9605220511        5.7848586788        1.6635079234
 O          1.7219414476        4.6664577134        1.2340779097
 H          4.6355509734        6.3508862453        1.1755736589
 H          2.7236561148        5.7032944705       -0.2428685632
 H          1.9625929468        6.0217039073        3.5675871801
 H          0.6999159489        6.4058506297        0.7955397701
 H          3.4887135729        4.2012788491        0.3673236109
 H          1.2144869857        7.5244508671        2.9380373853
 H          0.0526715655        5.3845056740        2.1160030559
 H          4.0314338429        5.3167753686        2.5061935740