142
-211.13181894
 C          3.2059877863       -6.4611204158        3.3016039551
 C          2.2103319736       -6.7830401756        2.1917985766
 C         -2.4114578059        4.7125992930        6.3499529433
 C         -3.4592625731        4.4022008701        5.2857270984
 C         -4.8690709345        4.7386227245       -2.4844424924
 C         -5.4480466903        3.8922310510       -3.6135464739
 C          6.6438631478       -1.3112673632       -3.1538708777
 C          6.0266269857       -2.0129237993       -4.3592468313
 C          3.6866416739       -5.0194564565        3.1815337221
 C          1.0302597987       -5.8199230160        2.2392948448
 C         -1.2396956446        3.7430330330        6.2441530609
 C         -2.8392524456        4.4632846360        3.8942363519
 C         -4.6105980979        3.8781967321       -1.2528293124
 C         -4.5063979106        2.7429149586       -3.9557829401
 C          5.7600240991       -0.1549197812       -2.7024023260
 C          4.6262673916       -2.5114343082       -4.0218682860
 C          2.0753707955        0.6598709893        3.9367109497
 C         -1.1651354573       -0.6739120152        0.6022964897
 C          1.1840295154        1.5986990566        0.4768959900
 C         -0.9973522178       -0.8351172401       -3.0340552768
 C          3.9414601453       -0.0632075129        2.5966628242
 C         -1.8416648005       -1.7646561662        2.6386385324
 C          3.4407836929        2.2913369228        2.8076636937
 C         -3.1125505298        0.1069778305        1.7840087184
 C          0.2914267554        3.7766799071       -0.0336451179
 C         -2.3814563688       -2.4659213716       -1.9300481786
 C          1.9041546833        2.7474311962       -1.5121856670
 C         -0.0571726587       -2.9514083501       -2.3773529055
 C          2.4852701870       -1.7545997400        3.6776005231
 C          0.1509279681       -2.5921309960        1.4158626270
 C          1.4351897580        3.0477553696        4.0243593648
 C         -2.4234538674        1.2248685972       -0.3209556463
 C         -0.4475405042        2.5990018200        2.0198337711
 C         -3.3357723335       -0.2610974024       -2.4709910878
 C          2.8367040652        0.5102927662       -0.9945665579
 C          1.3984426781       -1.2485321096       -3.4367947669
 C          2.8519152277       -0.3689405092        3.4164872439
 C         -0.9669783065       -1.6689080011        1.5547762126
 C          2.3496194815        1.9898389883        3.6215511651
 C         -2.2324179874        0.2143221600        0.7080850043
 C          0.3445763377        2.6614290610        0.8016276506
 C         -2.2338440822       -1.2088864775       -2.5114737689
 C          1.9675683208        1.6338758668       -0.6725318956
 C          0.0953716180       -1.6900929489       -2.9579972258
 C          4.2215772577        1.2591529531        2.3181743821
 C         -2.8933900789       -0.8736386194        2.7340233634
 C          1.0674056878        3.7948663257       -1.1778895956
 C         -1.2929305289       -3.3169730600       -1.8855226747
 C          2.5116131702       -4.0443062540        3.2370055148
 C          1.5011519391       -4.3701024772        2.1071570843
 C         -0.5983679768        3.8066916699        4.8603654936
 C         -1.6767221362        3.4834102806        3.7735144860
 C         -3.6580930738        2.7319352530       -1.5775949700
 C         -4.2490519773        1.8615028449       -2.7365157313
 C          4.3529418776       -0.6425545350       -2.3510193236
 C          3.7259756796       -1.3608080659       -3.5738657185
 Br         5.7067216485        1.6800407913        1.1921675139
 Br        -4.0768078848       -0.9901614988        4.2290286508
 Br         0.9687465697        5.3109049152       -2.3366746290
 Br        -1.5032539416       -5.0398214826       -1.0949056025
 N          2.9831804996       -2.7102041860        3.0193220190
 N          0.3803469524       -3.4985802577        2.2621706689
 N          0.4059874950        2.8076598092        4.7212231637
 N         -3.4999609661        1.8774967877       -0.4451143098
 N         -1.0479862557        3.6049754497        2.4973281431
 N         -3.2613599303        0.8760758000       -3.0239346045
 N          3.5330205285        0.4859622597       -2.0457911614
 N          2.4567668520       -1.8810836587       -3.1638510693
 H          2.7275296613       -6.6048576794        4.2729342717
 H          4.0620400966       -7.1355453275        3.2445070801
 H          1.8454263034       -7.8055391827        2.2999046042
 H          2.7056314091       -6.7030083151        1.2217098524
 H         -2.0497407866        5.7349920357        6.2181773703
 H         -2.8551089297        4.6373733985        7.3439879218
 H         -3.8675643444        3.4036586987        5.4572872268
 H         -4.2803343284        5.1179273360        5.3500348285
 H         -3.9313422803        5.1921816891       -2.8132350935
 H         -5.5606449373        5.5425543587       -2.2276935525
 H         -5.6045193664        4.5086348757       -4.5002018340
 H         -6.4161750134        3.4894208017       -3.3072272650
 H          7.6342434405       -0.9302574548       -3.4077010431
 H          6.7569077423       -2.0242770393       -2.3342873588
 H          6.6495520474       -2.8563319974       -4.6618466718
 H          5.9722122727       -1.3154655819       -5.1981068942
 H          4.3787028884       -4.7786954364        3.9911303505
 H          4.2111180046       -4.8736303884        2.2356766039
 H          0.3287258982       -6.0340045550        1.4308258200
 H          0.4957312154       -5.9222376921        3.1849215333
 H         -1.5773323991        2.7206199157        6.4213759590
 H         -0.4792370523        3.9816152906        6.9905773913
 H         -2.4684881841        5.4683263694        3.6864715477
 H         -3.5824752919        4.2141966906        3.1347579429
 H         -5.5453808805        3.4563778939       -0.8801400705
 H         -4.1689022524        4.4783356133       -0.4552350291
 H         -3.5495076488        3.1303407610       -4.3093456121
 H         -4.9337776757        2.1246044925       -4.7478860719
 H          5.6762814463        0.5894873280       -3.4957146094
 H          6.1879791288        0.3348140528       -1.8256251425
 H          4.6710439157       -3.2463758111       -3.2163677673
 H          4.1718189591       -2.9916962465       -4.8908809252
 H          1.2255701858        0.4486322897        4.5670890677
 H         -0.4904101329       -0.5941780444       -0.2381151672
 H          1.2315203711        0.7407971186        1.1325823800
 H         -0.9011806223        0.1447162497       -3.4761061958
 H          4.5380176148       -0.8675970346        2.1971213359
 H         -1.6781303587       -2.5351268011        3.3747726292
 H          3.6653849477        3.3163517032        2.5537062292
 H         -3.9396556701        0.7947817073        1.8549278984
 H         -0.3582154130        4.5961967091        0.2286624975
 H         -3.3335474607       -2.7696975653       -1.5220485941
 H          2.5139009749        2.7655458487       -2.4010785704
 H          0.7941933215       -3.6114468283       -2.3271170527
 H          1.7231792655       -1.9077976084        4.4541560022
 H          0.7763101354       -2.4463514697        0.5204908375
 H          1.6615076563        4.0526290935        3.6386413746
 H         -1.5658779639        1.3744021255       -0.9934211721
 H         -0.4808602144        1.6123734278        2.5047909181
 H         -4.2192677405       -0.5753936943       -1.8965559932
 H          2.8439666946       -0.3102563097       -0.2595626799
 H          1.4021024656       -0.3173224808       -4.0205759359
 H          1.9737711060       -4.1348897026        4.1959228555
 H          2.0099327740       -4.2156039764        1.1391880156
 H         -0.2118448807        4.8192640605        4.6507203133
 H         -2.0131129906        2.4506413418        3.9616642378
 H         -2.6889306291        3.1166397533       -1.9358139558
 H         -5.1882272939        1.4154959598       -2.3663725721
 H          4.3896891123       -1.3626744603       -1.5145317509
 H          3.6201158735       -0.6113337098       -4.3764449156
 C         -2.7851273890       -1.4802063844       -5.9686930221
 C         -4.0010482064       -1.4881351750       -6.8957674762
 O         -2.8149256909       -2.6020276005       -5.0991060903
 C         -2.8665767100       -3.8080948526       -5.8458366977
 C         -4.0811776831       -3.8145168388       -6.7755879853
 O         -4.0534845326       -2.6923970614       -7.6404614196
 H         -2.7872736474       -0.5981896205       -5.3287044985
 H         -4.9179411511       -1.3848329646       -6.2971852226
 H         -1.9462836405       -3.9105103395       -6.4384456908
 H         -5.0024664661       -3.7937467814       -6.1753444493
 H         -3.9400494904       -0.6800664853       -7.6246612596
 H         -2.9310659072       -4.6176760087       -5.1187436199
 H         -4.0754968306       -4.6955774025       -7.4172437344
 H         -1.8639518416       -1.5090542777       -6.5680006803