142
-211.12675888
 C          5.1077670666       -4.4592570156        3.0259902581
 C          6.2125134689       -4.4444189105        1.9744541208
 C         -4.4161778492        6.0500373488        0.8562468867
 C         -5.3246096762        5.4368288464        1.9169916603
 C          4.0587307505        7.7174118844       -1.6774278596
 C          2.9792727885        7.7929729706       -0.6024847399
 C         -1.9905947433       -6.2037318312       -2.5238831542
 C         -0.9961994344       -5.6833658415       -3.5566597578
 C          4.5782506206       -3.0497297960        3.2603610540
 C          5.6966665915       -3.8439272697        0.6717997424
 C         -2.9542094983        5.7531999258        1.1704182929
 C         -5.0949864761        3.9326389480        2.0096929971
 C          4.5146714968        6.2760632238       -1.8738706623
 C          1.7958317427        6.9062623945       -0.9731037323
 C         -1.7724492342       -5.5115742830       -1.1834298632
 C         -1.1315166449       -4.1732609371       -3.7092962921
 C          0.8972293282        1.1642906329        1.5735313093
 C          4.0846633014        1.2200992197       -2.0028731861
 C         -2.4796705542       -0.4155475634        1.8007884332
 C          0.3580009883        1.1265097868       -1.7387939431
 C          2.9776072195        1.6240659459        2.6942765312
 C          3.4751316256       -0.9836100609       -2.7595320027
 C          1.3277437155        3.3721455768        2.4342759575
 C          2.7666980154        0.9637626599       -4.0025857929
 C         -1.1526276669       -0.1944071341        3.7988120282
 C         -0.9988411009        2.9680835647       -2.4929248892
 C         -0.9592687434       -2.1749605019        2.4281890042
 C         -1.7159785132        0.6920198306       -2.8811656466
 C          2.5406492844       -0.6568739556        1.8299976325
 C          4.7610681099       -0.7281508721       -0.6550179892
 C         -0.8209695268        2.9011124178        1.2899102022
 C          3.2292759305        3.2331549951       -3.1589645838
 C         -2.5738189156        1.6918300755        3.0942209384
 C          1.1406134024        3.4208596657       -1.3241359742
 C         -2.2589170347       -2.3784913445        0.3270942447
 C         -0.3235163078       -1.2126592583       -2.1240876751
 C          2.1338968628        0.7262090859        2.0376751486
 C          4.1145396355       -0.1587740982       -1.8301502083
 C          0.4878032311        2.4813245414        1.7670320223
 C          3.3979974224        1.7901426372       -3.0739115312
 C         -2.0949701799        0.3293159752        2.9147722529
 C          0.1479658042        2.4985611480       -1.8536170070
 C         -1.9078127397       -1.6558804210        1.5427639481
 C         -0.5629675541        0.2183949512       -2.2523489702
 C          2.5600984860        2.9283306054        2.8771732532
 C          2.8246561936       -0.4082468101       -3.8321480770
 C         -0.6089400029       -1.4409100942        3.5430358913
 C         -1.9124871962        2.0554860557       -2.9871712220
 C          4.0473107035       -2.4395065920        1.9617722333
 C          5.1693101153       -2.4266349498        0.8914687019
 C         -2.7069521780        4.2504619995        1.2559325505
 C         -3.6385943451        3.6194976523        2.3429772901
 C          3.3434727830        5.3776093277       -2.2629148073
 C          2.2358464785        5.4578911694       -1.1605327299
 C         -1.9105232939       -3.9956760320       -1.3189452271
 C         -0.9050416387       -3.4636793539       -2.3729420526
 Br         3.7228271379        4.1612230067        3.7600594594
 Br         1.9451316097       -1.5334273297       -5.1017493327
 Br         0.6910395879       -2.1460321080        4.7528979120
 Br        -3.4986079929        2.7027539380       -3.8339069628
 N          3.6658931995       -1.0851379412        2.2054837002
 N          4.5963444026       -1.9357588242       -0.3250011392
 N         -1.3595886870        3.9879520226        1.6487093661
 N          3.7470546182        4.0133376199       -2.3071842261
 N         -3.3996181498        2.2171018192        2.2915930846
 N          1.1399909175        4.6553998333       -1.6003746674
 N         -1.5912695898       -3.3740245286       -0.0698125104
 N         -1.1525796053       -2.0672764265       -2.5397503310
 H          4.2917760574       -5.1028175964        2.6901117531
 H          5.4891843085       -4.8620513008        3.9655261717
 H          6.5687679781       -5.4594062535        1.7905713447
 H          7.0546227606       -3.8522155010        2.3394373275
 H         -4.6682545180        5.6356516132       -0.1224889045
 H         -4.5667819075        7.1299067280        0.8141168110
 H         -5.1160309732        5.8964853450        2.8858242860
 H         -6.3699562324        5.6293441135        1.6704371410
 H          3.6633211307        8.1049458823       -2.6191810946
 H          4.9138532810        8.3322662570       -1.3922429735
 H          2.6392103721        8.8231842508       -0.4859365502
 H          3.3937163937        7.4641420874        0.3531957999
 H         -1.8732454144       -7.2815622180       -2.3996838061
 H         -3.0087723444       -6.0127937185       -2.8701773765
 H         -1.1722736669       -6.1608699258       -4.5217513640
 H          0.0204455587       -5.9270825850       -3.2405553924
 H          3.7708672995       -3.0611946149        3.9950221304
 H          5.3719035566       -2.4057726244        3.6423029263
 H          6.4933416025       -3.8078874832       -0.0741071901
 H          4.8862056138       -4.4541446600        0.2696240767
 H         -2.6702360656        6.2050789103        2.1221918202
 H         -2.3075231554        6.1655674970        0.3938843822
 H         -5.3428264956        3.4526502868        1.0615700007
 H         -5.7295094630        3.4971711117        2.7843688794
 H          4.9547592761        5.8896059855       -0.9531378413
 H          5.2711769322        6.2193145946       -2.6592695786
 H          1.3375231377        7.2516096148       -1.9012164392
 H          1.0370628025        6.9378782701       -0.1892243631
 H         -0.7742244517       -5.7332873518       -0.8021451996
 H         -2.4997806784       -5.8633478297       -0.4488551158
 H         -2.1295054855       -3.9172488139       -4.0683591305
 H         -0.4060972092       -3.7943263536       -4.4317372679
 H          0.2390308943        0.4739865133        1.0651477056
 H          4.5650897903        1.8780350053       -1.2953999963
 H         -3.2093954010        0.0090340431        1.1289046290
 H          1.2534825876        0.7663785687       -1.2523075455
 H          3.9350508068        1.2764652364        3.0473779924
 H          3.5024836213       -2.0520097623       -2.6167670405
 H          0.9995048953        4.3880469333        2.5842700579
 H          2.2303285114        1.3902861182       -4.8368333761
 H         -0.8438668893        0.3708420108        4.6652671151
 H         -1.1498847035        4.0319056589       -2.5815570292
 H         -0.5207693252       -3.1375710930        2.2191135182
 H         -2.4249604748       -0.0189779102       -3.2736411583
 H          1.8000129657       -1.2995465468        1.3279065146
 H          5.3698800256       -0.0321288783       -0.0614814472
 H         -1.3159116032        2.2000325413        0.6018953023
 H          2.5828905809        3.5959373963       -3.9715055811
 H         -2.1351555131        2.2498558602        3.9344218625
 H          1.9005905852        2.9665579150       -0.6715798706
 H         -3.1172972534       -1.9822649654       -0.2328290662
 H          0.6270085031       -1.4943038302       -1.6436560938
 H          3.2075398386       -3.0383675528        1.5672640849
 H          5.9701416963       -1.7644313910        1.2618455667
 H         -2.9558778451        3.7563826502        0.3023288786
 H         -3.3537711977        4.0566424340        3.3157929022
 H          2.8889519114        5.7103861085       -3.2122325941
 H          2.6836865085        5.0606370591       -0.2347699566
 H         -2.9229275159       -3.7245700779       -1.6632683202
 H          0.1154179969       -3.6586934635       -1.9985774105
 C        -10.3184039345      -10.7087944312        2.2245350493
 C        -10.4802733937       -9.5478722648        1.2411359424
 O         -9.5794398493      -11.7640418125        1.6325911466
 C         -8.3127465282      -11.3022879818        1.1938064040
 C         -8.4747300072      -10.1414985530        0.2103042374
 O         -9.2134954768       -9.0859342799        0.8024884470
 H        -11.2872836523      -11.1289740718        2.4946618175
 H        -11.0705347707       -9.8794951659        0.3746714016
 H         -7.7223174533      -10.9706193025        2.0602086226
 H         -8.9959214955      -10.4937469646       -0.6915908705
 H        -10.9665733478       -8.6971192459        1.7186774771
 H         -7.8267766086      -12.1532390232        0.7163362052
 H         -7.5059538067       -9.7212645333       -0.0601026246
 H         -9.7977131935      -10.3565721258        3.1268314294