142
-211.12639220
 C          3.4735515702       -7.1799242248        3.3642503121
 C          2.6647999866       -7.5941688302        2.1393694655
 C         -4.3726545290        2.8554315501        5.0749166387
 C         -5.1621635045        2.5452090759        3.8070548036
 C         -5.8122392607        2.8694928861       -2.7475280823
 C         -6.0029920593        2.0231630852       -4.0014627456
 C          6.6769212052        0.6150685008       -2.2357927094
 C          6.6150110447       -0.3961333989       -3.3750656169
 C          3.7503317494       -5.6814618435        3.3325561286
 C          1.3585809733       -6.8123083433        2.0763204890
 C         -3.0809009243        2.0464359310        5.1119433406
 C         -4.3191735439        2.8377025560        2.5695761161
 C         -5.4922588060        1.9807650613       -1.5511514472
 C         -4.7550879735        1.1914923462       -4.2733270431
 C          5.4031158650        1.4497566714       -2.1969086886
 C          5.3961571363       -1.2957613043       -3.2119437538
 C          1.0663972408       -0.3387431736        3.5912278578
 C         -1.3356453065       -1.8082033372        0.5567929370
 C         -0.0820006436        2.1596517040       -0.4050309421
 C         -0.5731546876       -1.4230847908       -3.2378550740
 C          3.3151624315       -0.7104413031        2.8115973288
 C         -2.0765412729       -3.2303245060        2.3532834642
 C          2.3653145135        1.5128999716        2.7653883038
 C         -3.5568343712       -1.5485633207        1.4504346577
 C         -1.3762505444        3.7947869613       -1.6087669584
 C         -1.5266292089       -3.4607450964       -2.3773443233
 C          0.7012299266        2.9770040612       -2.5289318167
 C          0.8721394022       -3.2273278373       -2.5669466160
 C          1.9533616527       -2.6301566640        3.5980299094
 C          0.1704935727       -3.5870848683        1.3837522074
 C          0.0259696933        1.8982323834        3.4549308366
 C         -2.8423202102       -0.1376824127       -0.4519188918
 C         -2.2301636444        2.9497903857        0.5492251891
 C         -3.0145055260       -1.5588716273       -2.8918275642
 C          2.0728573825        1.3327083259       -1.2916777155
 C          1.8649358829       -1.1079227166       -3.3905485087
 C          2.1229662268       -1.2062614105        3.3453494127
 C         -1.0905209750       -2.8583375056        1.4375930620
 C          1.1715422497        1.0167450707        3.2874567160
 C         -2.5705403758       -1.1648097584        0.5425008274
 C         -1.2124763847        2.9712279429       -0.4976594169
 C         -1.6926054105       -2.1664485577       -2.8674047663
 C          0.8800602721        2.1620546482       -1.4077291268
 C          0.7072898094       -1.9356382859       -3.0727474626
 C          3.4164046405        0.6399153815        2.5446279314
 C         -3.2828598430       -2.5584121844        2.3530279293
 C         -0.4177019990        3.7778830275       -2.6055978991
 C         -0.2468013344       -3.9710595047       -2.2487859933
 C          2.4517056852       -4.8805137459        3.2756623579
 C          1.6174888534       -5.3063599786        2.0331449179
 C         -2.2257069615        2.3182550179        3.8752856250
 C         -3.0417295459        1.9992170083        2.5916513874
 C         -4.2387301562        1.1468966231       -1.8003825253
 C         -4.4265600853        0.2846131022       -3.0892871218
 C          4.1624781714        0.5680806707       -2.0342679070
 C          4.1050675850       -0.4798037556       -3.1770233687
 Br         5.0516491979        1.3310611866        1.8321249774
 Br        -4.6203054175       -3.0435261849        3.6277974077
 Br        -0.6575925993        4.8951898769       -4.1287042065
 Br        -0.0264733485       -5.7503141129       -1.5928414395
 N          2.7475542708       -3.4902946783        3.1226884709
 N          0.3705774503       -4.6152060064        2.0895152624
 N         -1.0822801205        1.4625851203        3.8722040699
 N         -4.0194733009        0.2508344634       -0.7084440060
 N         -2.1417767451        2.1125102456        1.4877652310
 N         -3.1821974094       -0.3731074469       -3.2998606579
 N          3.0013144000        1.3916345810       -2.1445515333
 N          3.0055979763       -1.3591101425       -2.9118279269
 H          2.9155070985       -7.4278394453        4.2700172371
 H          4.4191005779       -7.7241932787        3.3914096663
 H          2.4452868969       -8.6622564977        2.1778095022
 H          3.2455726952       -7.4021373550        1.2346920268
 H         -4.1354384273        3.9219467799        5.1052545355
 H         -4.9738702683        2.6203406476        5.9544805856
 H         -5.4524928625        1.4927156523        3.8076709343
 H         -6.0731784403        3.1462012898        3.7786214066
 H         -4.9929633162        3.5735259350       -2.9095951149
 H         -6.7165350710        3.4449983617       -2.5424062403
 H         -6.2042502706        2.6663128565       -4.8596221817
 H         -6.8604559103        1.3600481129       -3.8669878256
 H          7.5357009321        1.2755986162       -2.3641927284
 H          6.7947124816        0.0913231158       -1.2851891895
 H          7.5194072748       -1.0065533093       -3.3845478000
 H          6.5537287135        0.1317860354       -4.3294294901
 H          4.3076754853       -5.3772768395        4.2209000984
 H          4.3486822400       -5.4270958577        2.4561599414
 H          0.7909672424       -7.0906400155        1.1865476508
 H          0.7443875861       -7.0293200840        2.9515783252
 H         -3.3041912652        0.9791655738        5.1453092143
 H         -2.5000785837        2.2975502757        6.0017973498
 H         -4.0618676000        3.9002350347        2.5470763524
 H         -4.8835336543        2.5964091673        1.6655173721
 H         -6.3227636529        1.3023118623       -1.3496891640
 H         -5.3322511259        2.5881719313       -0.6582156840
 H         -3.8983583783        1.8424033556       -4.4564766815
 H         -4.8981947023        0.5679214301       -5.1580650628
 H          5.2966571061        2.0218534421       -3.1200643960
 H          5.4399146472        2.1521859543       -1.3621957247
 H          5.4680649643       -1.8611746406       -2.2813729657
 H          5.3338009614       -2.0093376361       -4.0359900617
 H          0.1339641786       -0.6986076668        3.9956485164
 H         -0.5716727676       -1.5078427898       -0.1461815453
 H          0.0259610043        1.5358674655        0.4698810075
 H         -0.7263382254       -0.4277015956       -3.6242934581
 H          4.1281622782       -1.3922615675        2.6199928969
 H         -1.8750998695       -4.0409297021        3.0349577859
 H          2.4645026000        2.5617801275        2.5279265713
 H         -4.5136496483       -1.0523416171        1.4236678609
 H         -2.2412249832        4.4358451647       -1.6911152988
 H         -2.3843423906       -4.0524976397       -2.0951821202
 H          1.4484703653        2.9673579896       -3.3059302999
 H          1.8693184830       -3.6175978116       -2.4402032217
 H          1.0750405611       -2.9040675357        4.1984228008
 H          0.9139886596       -3.2050483584        0.6670783503
 H          0.1760879574        2.9478642719        3.1605358603
 H         -1.9634368014        0.2541659062       -0.9809976552
 H         -3.0424004720        3.6770359467        0.4356164366
 H         -3.8380354536       -2.1677093888       -2.4917491461
 H          2.1166630909        0.6737251302       -0.4103310283
 H          1.6710553516       -0.2458121964       -4.0433535375
 H          1.8305439025       -5.0733300644        4.1661904830
 H          2.1983245366       -5.0355943547        1.1348898482
 H         -1.9385218215        3.3860981495        3.8290132131
 H         -3.2976570502        0.9331535103        2.6363117619
 H         -3.3629664772        1.7929419426       -1.9769248294
 H         -5.2492559955       -0.4256700834       -2.8958733493
 H          4.1965694037        0.0248370937       -1.0741193580
 H          3.9646683410        0.0756591221       -4.1190124469
 C          3.5418185213        6.6560222159       -1.0951603557
 C          2.5494137777        5.7673940229       -1.8449589743
 O          3.1393176059        8.0134978093       -1.1543875576
 C          1.8329324312        8.1723719760       -0.6302826683
 C          0.8396197702        7.2818140393       -1.3778479783
 O          1.2414231291        5.9215768169       -1.3138869489
 H          4.5289413321        6.6088144961       -1.5545411571
 H          2.5444169670        6.0407811232       -2.9096151815
 H          1.8307409219        7.9095527180        0.4379919054
 H          0.7797304255        7.5964983019       -2.4291890097
 H          2.8043412126        4.7138057833       -1.7303311388
 H          1.5797115276        9.2252691270       -0.7542859893
 H         -0.1479370796        7.3313663870       -0.9185922350
 H          3.6028478738        6.3347336075       -0.0450022750