142
-211.12758565
 C          2.8856323960       -6.3885771134        3.6041780831
 C          1.6747232232       -6.7425585261        2.7469269464
 C         -1.3235496261        5.4092410816        6.6788775099
 C         -2.5991668872        5.0857234544        5.9075704068
 C         -5.5947174016        4.9002314148       -1.3833734338
 C         -6.4469625879        4.0358113801       -2.3070439261
 C          5.0939454805       -2.0735560198       -3.8349890261
 C          4.2103257937       -2.8102558918       -4.8363030564
 C          3.3944070604       -4.9949303221        3.2540669227
 C          0.5711099473       -5.7082722442        2.9326925726
 C         -0.2603840742        4.3472273887        6.4216362363
 C         -2.3058917234        4.9754177344        4.4155712723
 C         -5.1460728449        4.0981683226       -0.1669521531
 C         -5.6731315103        2.7963762213       -2.7420473075
 C          4.3891102126       -0.8207114777       -3.3296020853
 C          2.8750605663       -3.1743298252       -4.1975695782
 C          2.2701031149        0.8217604753        3.7663324486
 C         -1.6785213124       -0.5774545563        1.3038467490
 C          0.6910546978        1.5334278951        0.5146032082
 C         -2.3334619413       -1.0181237322       -2.3003127599
 C          3.7614955521       -0.1477376863        2.1423553575
 C         -1.9936507389       -1.4849104633        3.5111236712
 C          3.4543034702        2.2473049057        2.2278591369
 C         -3.3100513472        0.4059321215        2.7773449458
 C         -0.1729994256        3.7193388230       -0.0100590779
 C         -3.5349613504       -2.4247516920       -0.7575804552
 C          1.0188570734        2.4492336239       -1.6872833432
 C         -1.3833590436       -3.1204647572       -1.6083021503
 C          2.4793355413       -1.6310491341        3.6591918243
 C         -0.3203719532       -2.5140155142        1.9993855325
 C          1.8054956645        3.2523946023        3.7583619248
 C         -2.9927067213        1.3387359475        0.5012650881
 C         -0.5052502391        2.7809219357        2.2618972519
 C         -4.4527984038       -0.2067226603       -1.3123998750
 C          1.9223560292        0.2028722332       -1.1561793066
 C         -0.0944232345       -1.6406708629       -3.1219329345
 C          2.8569737060       -0.3020408577        3.1963070568
 C         -1.3450909270       -1.5164217358        2.2752700826
 C          2.5473330521        2.0970807456        3.2760957477
 C         -2.6553226446        0.3849863258        1.5464572703
 C          0.0013727385        2.6794468669        0.9022940982
 C         -3.4475997309       -1.2434132179       -1.4929886985
 C          1.2051840618        1.4111218708       -0.7726336000
 C         -1.2937332186       -1.9394620457       -2.3500295664
 C          4.0511458766        1.1223346619        1.6868710710
 C         -2.9607886972       -0.5246897857        3.7385171493
 C          0.3330883954        3.5808254938       -1.2893779796
 C         -2.5049758078       -3.3452722354       -0.8364676288
 C          2.2981158367       -3.9472833299        3.4435885479
 C          1.0671706378       -4.3063539905        2.5724295118
 C          0.0562191041        4.2376729491        4.9323862716
 C         -1.2542514782        3.9043622182        4.1452925292
 C         -4.3589118050        2.8616959009       -0.5887183240
 C         -5.2328602206        1.9730782144       -1.5344003025
 C          3.0508723210       -1.1704161744       -2.6754000423
 C          2.1525383202       -1.9283735375       -3.6865664369
 Br         5.2828063150        1.3359059692        0.2420421027
 Br        -3.8364400655       -0.4722022337        5.4360467012
 Br         0.0652451153        4.9946873264       -2.5467173555
 Br        -2.6259267053       -4.9554444132        0.1850537033
 N          2.7758824060       -2.6705320081        3.0066670322
 N          0.0390172934       -3.3590148602        2.8637983261
 N          0.9452156464        3.1542132203        4.6816702051
 N         -4.0248839642        2.0682242804        0.5504286211
 N         -0.9199983274        3.8682908262        2.7575832444
 N         -4.3955719603        0.8935953173       -1.9353935790
 N          2.3768330132        0.0376222223       -2.3208278048
 N          0.9634661484       -2.3174233720       -2.9909599937
 H          2.6059000903       -6.4188894354        4.6595839013
 H          3.6828830942       -7.1167445389        3.4457405598
 H          1.2953187624       -7.7278917497        3.0219061753
 H          1.9683949102       -6.7759728530        1.6954912620
 H         -0.9454254004        6.3849633677        6.3651148658
 H         -1.5357529614        5.4578361468        7.7480983058
 H         -3.0118845241        4.1402754837        6.2667610974
 H         -3.3448218937        5.8644770235        6.0752050867
 H         -4.7166874953        5.2571378656       -1.9264084843
 H         -6.1648546747        5.7706566949       -1.0549227767
 H         -6.7400745574        4.6078390525       -3.1887968429
 H         -7.3567342845        3.7311321679       -1.7845992655
 H          6.0382064385       -1.7920828356       -4.3034874695
 H          5.3185974040       -2.7302842105       -2.9917941538
 H          4.7084451350       -3.7182676897       -5.1799146664
 H          4.0355836461       -2.1703522006       -5.7036303977
 H          4.2444048508       -4.7287389437        3.8857496410
 H          3.7246509184       -4.9635052084        2.2143866028
 H         -0.2877467445       -5.9470734720        2.3025719335
 H          0.2339059381       -5.6965543507        3.9702861820
 H         -0.6048690433        3.3735537438        6.7738050168
 H          0.6601657803        4.5927888899        6.9551909418
 H         -1.9388134979        5.9272170550        4.0282507021
 H         -3.2131816207        4.7150531348        3.8675079478
 H         -6.0101346517        3.7762116202        0.4165272538
 H         -4.5112316842        4.7083823663        0.4780391680
 H         -4.7845915956        3.0835148414       -3.3066245552
 H         -6.2922303706        2.1666697644       -3.3843739642
 H          4.1978068746       -0.1345684856       -4.1560230315
 H          5.0095155226       -0.3004975917       -2.5974513723
 H          3.0313712906       -3.8506049602       -3.3554814336
 H          2.2308795998       -3.6792971304       -4.9203247459
 H          1.5640271613        0.7276540473        4.5767755443
 H         -1.1815256608       -0.5984349740        0.3443319936
 H          0.8350388448        0.7344111243        1.2280135913
 H         -2.2847626245       -0.0965724738       -2.8594308145
 H          4.2115987525       -1.0250991685        1.7062608511
 H         -1.7271663778       -2.2144705416        4.2587455303
 H          3.6783784251        3.2283047415        1.8366594801
 H         -4.0691691848        1.1508922268        2.9536970384
 H         -0.7033649061        4.6049656769        0.3009391119
 H         -4.3906229192       -2.6125180900       -0.1265691950
 H          1.4188329329        2.3451758440       -2.6829689201
 H         -0.5719688160       -3.8291063222       -1.6531426914
 H          1.8924919161       -1.6644796290        4.5875439761
 H          0.1152123720       -2.4792256658        0.9880180710
 H          1.9973386309        4.1999619050        3.2338126346
 H         -2.2900656949        1.3733186628       -0.3443868375
 H         -0.4921984379        1.8427289488        2.8361124533
 H         -5.2299827348       -0.4164722418       -0.5628098022
 H          2.0404321610       -0.5510137286       -0.3615514810
 H         -0.1609501425       -0.7722567524       -3.7917408447
 H          1.9617757159       -3.9193543926        4.4939151522
 H          1.3750478322       -4.2653869623        1.5125745558
 H          0.4429076409        5.1942809293        4.5399857430
 H         -1.5955563859        2.9199679642        4.5056344962
 H         -3.4617751805        3.1447823399       -1.1634733140
 H         -6.1056466569        1.6302062424       -0.9518658086
 H          3.2079076062       -1.8256235106       -1.8002846768
 H          1.9328697882       -1.2356463126       -4.5165701967
 C          4.1266951125       -3.0842271388      -12.1483221131
 C          3.3054250564       -1.8108036286      -11.9365244498
 O          4.8130941318       -3.4377744728      -10.9593629816
 C          3.9015605632       -3.6057007112       -9.8866843891
 C          3.0799849125       -2.3323696282       -9.6752244434
 O          2.3932191531       -1.9788755159      -10.8640913304
 H          4.8923940199       -2.9323277548      -12.9091261380
 H          3.9797856945       -0.9704926258      -11.7167283991
 H          3.2268222078       -4.4459589262      -10.1057204393
 H          3.7465206209       -1.5096398690       -9.3783784868
 H          2.7033800652       -1.5839039913      -12.8164323176
 H          4.5047591817       -3.8325223701       -9.0076413512
 H          2.3132454091       -2.4846446876       -8.9154446718
 H          3.4600454909       -3.9064782145      -12.4462538911