142
-211.12678794
 C          5.8247132885       -5.6872949734        3.3926398655
 C          5.2928401166       -6.2648560923        2.0850141930
 C         -4.3084077349        2.0705721451        5.4487456553
 C         -4.9492005311        1.4749825486        4.1991687540
 C         -4.9361866570        1.9872245573       -3.6364646753
 C         -4.9203007698        1.1312132822       -4.8989179768
 C          7.9092070198        0.8861990352       -2.1018636727
 C          7.8673152819        0.1113068204       -3.4149392451
 C          5.6697374606       -4.1709231241        3.4040749338
 C          3.8326126748       -5.8762307137        1.8876709387
 C         -2.8510482467        1.6367683252        5.5597035310
 C         -4.1730829801        1.8880427568        2.9536076434
 C         -4.5801615515        1.1448127916       -2.4165857284
 C         -3.5555414627        0.4770415061       -5.0826285815
 C          6.5701543904        1.5661791033       -1.8434995044
 C          6.7422460961       -0.9168659340       -3.3882709156
 C          1.7671517658        0.2901302717        3.8892656179
 C          0.0258002081       -1.9082489402       -0.0673415368
 C          1.1830757287        1.1195312153        0.3510417675
 C          0.8444995910       -1.6357336897       -3.6351827866
 C          3.9737277520        0.4889028768        2.9438744923
 C         -0.4976800630       -3.4251933469        1.7268161078
 C          2.5409379548        2.4281527497        3.0939179431
 C         -2.2509061076       -2.1238966343        0.6874337775
 C         -0.4020545792        2.8074785142       -0.3104504315
 C          0.0257956610       -3.7534688080       -2.8309623741
 C          1.7220616844        2.6214450474       -1.4511942158
 C          2.3922684383       -3.2698343585       -2.7773684694
 C          3.1579124927       -1.7339533259        3.6740719598
 C          1.8482406733       -3.2183736429        0.9520277695
 C          0.2209090538        2.2234541536        3.8948430749
 C         -1.7145277974       -0.5666825777       -1.1678535383
 C         -0.9574959723        1.2628829057        1.5498225292
 C         -1.5954783136       -2.0384767018       -3.5373214057
 C          3.3663204252        0.8948839869       -0.7706968283
 C          3.2376863770       -1.0599189368       -3.5157012194
 C          2.9713388265       -0.2971687622        3.5185396553
 C          0.4415332134       -2.8500152329        0.8689442066
 C          1.5365295736        1.6464399682        3.6633079600
 C         -1.3136365366       -1.5393054439       -0.1634157161
 C         -0.0554117428        1.7357759995        0.5113817629
 C         -0.2230368332       -2.4933093035       -3.3732884429
 C          2.0773072665        1.5563255601       -0.6215669726
 C          2.1475214602       -2.0078249979       -3.3253306863
 C          3.7440876214        1.8361376713        2.7529602380
 C         -1.8233448732       -3.0501997923        1.6208423997
 C          0.4905829199        3.2244831842       -1.2807360582
 C          1.3300309561       -4.1213983943       -2.5517625057
 C          4.2083797001       -3.7667229423        3.2128626870
 C          3.6652982249       -4.3553533537        1.8854080974
 C         -2.0579598920        2.0617086039        4.3266107774
 C         -2.7162721910        1.4462803268        3.0477641280
 C         -3.2100489618        0.4958235121       -2.5835033915
 C         -3.1954631079       -0.3858063155       -3.8760712356
 C          5.4345009185        0.5416212787       -1.8012842957
 C          5.3920168026       -0.2473301567       -3.1349980517
 Br         5.1099853922        2.9113963063        1.9599463229
 Br        -3.1057128078       -3.8266660270        2.8056490632
 Br        -0.0014791234        4.6718060754       -2.4271065600
 Br         1.6610716222       -5.8446214687       -1.7960248549
 N          4.1158677474       -2.3414070820        3.1194360872
 N          2.2747721344       -4.0388923059        1.8094857521
 N         -0.7332690148        1.5416015455        4.3711611087
 N         -2.9235658570       -0.3631683788       -1.4793491780
 N         -1.9765134815        1.9147141081        1.9196246094
 N         -1.8679387271       -0.8877645285       -3.9889536923
 N          4.1905049085        1.2297059215       -1.6645843931
 N          4.3783461152       -1.2501972705       -3.0088093961
 H          5.2716525281       -6.1156914016        4.2314685479
 H          6.8777684505       -5.9457751901        3.5159886116
 H          5.3786546013       -7.3525170416        2.0925543193
 H          5.8861514220       -5.8858133811        1.2500021536
 H         -4.3600150560        3.1607427943        5.4006366678
 H         -4.8516473646        1.7463092342        6.3377637410
 H         -4.9555892681        0.3854789833        4.2776103053
 H         -5.9830458470        1.8128933189        4.1122812982
 H         -4.2137319114        2.8000955967       -3.7390214521
 H         -5.9239281494        2.4294740299       -3.4973933518
 H         -5.1473883260        1.7469311577       -5.7706499619
 H         -5.6869621207        0.3565784968       -4.8238639442
 H          8.6963837707        1.6409216082       -2.1362358694
 H          8.1339846964        0.2020076731       -1.2807041620
 H          8.8190789827       -0.3959774863       -3.5815367498
 H          7.7057111249        0.8057037286       -4.2424288619
 H          6.0248981837       -3.7576846717        4.3503641490
 H          6.2580451538       -3.7251774256        2.6001870315
 H          3.4557201328       -6.2701075038        0.9419145307
 H          3.2194776378       -6.2875183749        2.6909893730
 H         -2.7851230499        0.5518182989        5.6559683186
 H         -2.3869356550        2.0827106411        6.4418149428
 H         -4.1992102359        2.9719886518        2.8308560330
 H         -4.6142941537        1.4363493281        2.0633260894
 H         -5.3207898582        0.3572896111       -2.2683158683
 H         -4.5617306010        1.7648229767       -1.5184992004
 H         -2.7838596303        1.2387317096       -5.2053815247
 H         -3.5520990409       -0.1536242168       -5.9740379028
 H          6.3528231064        2.2868514671       -2.6333411809
 H          6.5903316652        2.1040832139       -0.8938006500
 H          6.9174872230       -1.6480184348       -2.5972255137
 H          6.6927042077       -1.4535405960       -4.3379588429
 H          0.9759512596       -0.2972803025        4.3288088036
 H          0.7479779929       -1.4620811152       -0.7362860432
 H          1.4537023430        0.2970966180        0.9979181330
 H          0.6298982082       -0.6643918347       -4.0531240778
 H          4.9042299014        0.0242292833        2.6596905005
 H         -0.1666825141       -4.1528349783        2.4501545516
 H          2.3764293994        3.4794559706        2.9114947818
 H         -3.2864182742       -1.8361128145        0.6022566740
 H         -1.3603869197        3.2824459381       -0.1750357675
 H         -0.7906530379       -4.4280782449       -2.6214148895
 H          2.4197779580        2.9517607219       -2.2037408455
 H          3.4061629176       -3.5497383726       -2.5403485735
 H          2.3959537639       -2.2534460681        4.2714011168
 H          2.5094597827       -2.7326467178        0.2167377353
 H          0.0927883182        3.2689200366        3.5778357731
 H         -0.8867736341       -0.0252697566       -1.6493339486
 H         -0.6841333802        0.2976100903        2.0010275287
 H         -2.3759216971       -2.7323896679       -3.1919626244
 H          3.5698572573        0.0862873505       -0.0505511207
 H          2.9919069791       -0.1589771178       -4.0946765216
 H          3.5826444951       -4.1640158839        4.0299661342
 H          4.2352176215       -3.9045890578        1.0536258921
 H         -2.0710828884        3.1592924369        4.2089405277
 H         -2.6444775563        0.3512850734        3.1530981431
 H         -2.4271800183        1.2606696894       -2.7157136830
 H         -3.9355979205       -1.1924078169       -3.7336595677
 H          5.5960026900       -0.1811930692       -0.9819400662
 H          5.1561207022        0.4728242359       -3.9367350556
 C        -13.3563679552        7.7072511156       -2.5044361615
 C        -12.4873112571        8.3144904295       -1.4011583045
 O        -12.6878250780        6.6218139042       -3.1248364025
 C        -12.3381181675        5.6369681698       -2.1667420327
 C        -11.4689065998        6.2443206116       -1.0636685904
 O        -12.1377372162        7.3296105134       -0.4431252417
 H        -13.5519677158        8.4353243333       -3.2917895797
 H        -11.5736912358        8.7372981833       -1.8436242147
 H        -13.2517312587        5.2142541085       -1.7241595843
 H        -10.5200477674        6.5953579387       -1.4945128335
 H        -13.0303891736        9.0885888024       -0.8588434302
 H        -11.7951647776        4.8629892818       -2.7093340961
 H        -11.2731071672        5.5163993440       -0.2762255286
 H        -14.3054989367        7.3565487490       -2.0738235711