142
-211.13067748
 C          0.8109944588       -6.8085620276        2.8385372932
 C         -0.0855129910       -6.8540332055        1.6054125548
 C         -2.5932894408        5.1991071999        5.9921850410
 C         -3.5243336475        5.2009548064        4.7840592661
 C         -3.6811281620        6.3120240714       -2.8068447138
 C         -4.2283335451        5.7282763444       -4.1053381229
 C          6.2907924729       -1.9697854651       -2.8647938772
 C          5.7155214892       -2.4373346591       -4.1975448407
 C          1.5940765626       -5.5014525367        2.8741122958
 C         -1.0383415936       -5.6653423931        1.6013188000
 C         -1.6600603757        3.9947139896        5.9433098657
 C         -2.7176576789        5.2050443407        3.4904879036
 C         -3.8217765379        5.3060552988       -1.6700693240
 C         -3.5063514268        4.4310214304       -4.4512383986
 C          5.6004511459       -0.6897068528       -2.4102166236
 C          4.2125573146       -2.6587860489       -4.0747325403
 C          1.1626473481        0.3608499282        3.8123132299
 C         -1.7990567051       -0.0624335602        0.1008423675
 C          1.0556741791        1.7636975807        0.3315500281
 C         -1.0484627181        0.0785802945       -3.5811826694
 C          2.9871423215       -0.7143945744        2.6659586083
 C         -3.0258272514       -1.1195194273        1.8818166507
 C          3.0076232020        1.6790879308        3.0001651444
 C         -3.7085905477        1.0492090147        1.0592168200
 C          0.7222454610        4.1171971777       -0.0574670619
 C         -2.8729779170       -1.2812750244       -2.7935262795
 C          2.2844344965        2.8705667387       -1.4178144061
 C         -0.6535990374       -2.2201467798       -2.9801673859
 C          1.0571024666       -2.0707165330        3.4318769203
 C         -1.0765643573       -2.2850226703        0.8904733309
 C          1.0753000248        2.8244314356        4.0165259436
 C         -2.4490062104        2.1415140989       -0.7765128403
 C         -0.5383869554        2.9845920944        1.7522988232
 C         -3.2705469574        1.1108880032       -3.2370262353
 C          2.6519489112        0.4531765072       -1.0174462985
 C          1.2444671765       -0.8039760284       -3.7262311250
 C          1.7528018686       -0.7956492761        3.3161680469
 C         -1.9795247604       -1.1439988181        0.9576720740
 C          1.7724794540        1.6029264081        3.6424019090
 C         -2.6557904552        1.0348455523        0.1451997789
 C          0.4184696932        2.9586842539        0.6567172445
 C         -2.3944434311       -0.0512324937       -3.2423036995
 C          1.9916235047        1.7113281845       -0.6970324175
 C         -0.1719794791       -0.9913608766       -3.4405257461
 C          3.5950778916        0.5172674048        2.5312182179
 C         -3.8671944624       -0.0243340574        1.9162263844
 C          1.6430562702        4.0486305100       -1.0865756300
 C         -1.9947851167       -2.3447425502       -2.6785225970
 C          0.6550939199       -4.2961254936        2.8613800715
 C         -0.2553153268       -4.3516274709        1.6072764728
 C         -0.8319938983        3.9924793786        4.6608628945
 C         -1.7881967725        3.9975902589        3.4222170502
 C         -3.0956234057        4.0049981368       -1.9968542627
 C         -3.6521391258        3.4050583556       -3.3302353917
 C          4.0905130183       -0.8955371541       -2.2742303253
 C          3.5008655553       -1.3844371326       -3.6229829169
 Br         5.2814882458        0.6316601160        1.6403287407
 Br        -5.2883349155        0.0160250681        3.1926520368
 Br         2.0316813299        5.6308988714       -2.0849254703
 Br        -2.6599075682       -4.0224624383       -2.0520505569
 N          1.4256446122       -3.0919155245        2.7869964859
 N         -1.1727064030       -3.2598214676        1.6850324339
 N         -0.0695729212        2.7952512932        4.5556929676
 N         -3.3195823831        3.0385482053       -0.9699014042
 N         -0.9695728227        4.0627136639        2.2544221964
 N         -2.8597325935        2.2528647689       -3.5964956360
 N          3.4787656579        0.3570427965       -1.9649674910
 N          2.1129540164       -1.6635481137       -3.4074234519
 H          0.1983530712       -6.8910027350        3.7394621747
 H          1.5079821409       -7.6484363961        2.8277805688
 H         -0.6611714108       -7.7811127405        1.5937155315
 H          0.5276849956       -6.8170630466        0.7031780102
 H         -2.0014785208        6.1173363164        5.9979855276
 H         -3.1768016986        5.1680516137        6.9136766852
 H         -4.1595127982        4.3127366632        4.8127394205
 H         -4.1712533122        6.0791705864        4.8119236793
 H         -2.6269489871        6.5663964354       -2.9379967033
 H         -4.2193673091        7.2262480150       -2.5517856923
 H         -4.0997881457        6.4428301982       -4.9198966394
 H         -5.2970818478        5.5309840396       -3.9946881243
 H          7.3620225760       -1.7869029443       -2.9612562867
 H          6.1478374568       -2.7477168377       -2.1116130811
 H          6.1951862309       -3.3670146402       -4.5082044541
 H          5.9117811893       -1.6838235974       -4.9634278292
 H          2.2149786053       -5.4510703417        3.7711878839
 H          2.2490876776       -5.4334479518        2.0044067648
 H         -1.6726571071       -5.6860143703        0.7133871663
 H         -1.6848098882       -5.6884830203        2.4803236868
 H         -2.2354286154        3.0683715439        5.9835991529
 H         -0.9783178728        4.0058955947        6.7962419974
 H         -2.1134937472        6.1111206853        3.4216753515
 H         -3.3842829546        5.1767092369        2.6267956166
 H         -4.8739721632        5.0790484793       -1.4910156416
 H         -3.4019606147        5.7130869720       -0.7484970540
 H         -2.4433268636        4.6202407655       -4.6092301196
 H         -3.9127873102        4.0016356318       -5.3692921473
 H          5.7730202727        0.1098328998       -3.1322502485
 H          5.9943950741       -0.3633831480       -1.4458407481
 H          4.0077061214       -3.4422400636       -3.3438619161
 H          3.7928833152       -2.9707744048       -5.0333533363
 H          0.2068362880        0.3250107160        4.3116295065
 H         -0.9903430394       -0.0743801559       -0.6161556154
 H          0.8249181280        0.8699293852        0.8938705717
 H         -0.6990444718        1.0390383603       -3.9271270290
 H          3.4366750077       -1.6164193675        2.2827027725
 H         -3.1546161186       -1.9598232738        2.5447788610
 H          3.4927144563        2.6335363624        2.8611562871
 H         -4.3707286795        1.8996998645        1.0821421761
 H          0.2273725856        5.0382695697        0.2053941620
 H         -3.9128533081       -1.3989689306       -2.5284231713
 H          3.0087227669        2.8198788329       -2.2147116099
 H          0.0328376374       -3.0436815698       -2.8665416433
 H          0.1776092647       -2.0747766252        4.0906419548
 H         -0.3101327579       -2.2400411885        0.1005726669
 H          1.5774949484        3.7668990035        3.7534645483
 H         -1.4824860574        2.1391646450       -1.3015346239
 H         -0.8549692769        1.9979845151        2.1211030610
 H         -4.2878422890        0.9461833127       -2.8528929504
 H          2.3837375411       -0.4016455161       -0.3765150051
 H          1.5079652329        0.1465721940       -4.2109057052
 H         -0.0037653667       -4.3029204972        3.7463802097
 H          0.3878561679       -4.2884666794        0.7126997771
 H         -0.2023807598        4.8968383217        4.5955180649
 H         -2.3621478110        3.0572262596        3.4634358400
 H         -2.0198195208        4.1850699456       -2.1572247224
 H         -4.7134930465        3.1530317075       -3.1613317196
 H          3.8701821592       -1.6610800583       -1.5095184132
 H          3.6451477395       -0.5738927686       -4.3572045500
 C          1.5852073875       -8.5817635063       -2.3777900846
 C          0.7568112762       -7.2966661338       -2.3371358443
 O          2.8863284969       -8.3226833504       -2.8791594978
 C          3.5354942632       -7.3347834070       -2.0973128417
 C          2.7060136453       -6.0503949305       -2.0612406103
 O          1.4082997967       -6.3096899969       -1.5535011572
 H          1.1375127956       -9.3109198989       -3.0528841201
 H          0.6142855694       -6.9169041474       -3.3588690916
 H          3.6783180727       -7.7105904882       -1.0735889746
 H          2.6263194878       -5.6372467026       -3.0769711699
 H         -0.2116828738       -7.4717178704       -1.8692152426
 H          4.5034820875       -7.1604392940       -2.5675417819
 H          3.1557506365       -5.3148876240       -1.3940268452
 H          1.6591369627       -9.0050816806       -1.3656730479