142
-211.12867733
 C          1.6574306953       -7.2311273433        1.8136829377
 C          1.3758378743       -7.2813451411        0.3154838234
 C         -5.6656935657        3.1512726647        4.0882720559
 C         -6.0812018229        3.1023931506        2.6214242634
 C         -3.6075926748        5.2765329032       -4.5033159815
 C         -3.4839494619        4.7893060308       -5.9434716083
 C          7.2222157048       -0.8468530712       -0.9406959320
 C          7.3318410551       -1.2546734333       -2.4063637010
 C          1.9919983617       -5.8073111405        2.2430265692
 C          0.2370766122       -6.3342914130       -0.0430472782
 C         -4.5049804576        2.1970516277        4.3458110398
 C         -4.8996063306        3.4454921780        1.7211677711
 C         -3.9117506753        4.1095229736       -3.5706627012
 C         -2.4013374099        3.7216091679       -6.0544034738
 C          6.1362362405        0.2071592023       -0.7617336275
 C          5.9919937062       -1.7750531391       -2.9140876273
 C         -0.2696876840       -0.4044839307        3.2592519851
 C         -1.3890866070       -0.9037792807       -1.4358938476
 C          0.4718028013        1.3166854328        0.0868164018
 C          0.4966493733       -0.1653076586       -4.5253967653
 C          2.0604241004       -0.8649148022        2.8599315806
 C         -2.8617058112       -2.4561288766       -0.3331640907
 C          1.3280559544        1.3978831555        3.2852610998
 C         -3.7366546774       -0.3981388839       -1.2530710260
 C         -0.2702306833        3.5673751230       -0.3415234816
 C         -1.1325686000       -1.9384767388       -4.5791765002
 C          1.9297229823        2.8574236756       -1.0511097494
 C          1.1451379818       -2.4049718859       -3.9215101491
 C          0.4139819074       -2.7129997805        2.7304817560
 C         -0.4487206847       -2.9914149451       -0.5214586379
 C         -1.0660655311        1.9232042158        3.5327641590
 C         -2.2213808797        1.2022611920       -2.3912435331
 C         -1.7719527133        1.9836345810        0.8373266399
 C         -1.8657526905        0.3706702348       -5.0293122204
 C          2.7105421152        0.5477001327       -0.6019418097
 C          2.8071005662       -0.5713933701       -3.7730506191
 C          0.7418735414       -1.3138730216        2.9727135651
 C         -1.5813388472       -2.1096013857       -0.7685372002
 C          0.0111991717        0.9541086137        3.3981161634
 C         -2.4571081758       -0.0436844401       -1.6788898791
 C         -0.5132180180        2.2968444061        0.1788873046
 C         -0.8113373640       -0.5924562084       -4.7495520456
 C          1.6946266301        1.5881662717       -0.5194945979
 C          1.4722829907       -1.0577146587       -4.0965809427
 C          2.3291584226        0.4779684062        3.0289608368
 C         -3.9127026996       -1.5945112511       -0.5824808318
 C          0.9433164229        3.8201471210       -0.9542463320
 C         -0.1457405975       -2.8209435405       -4.1766331925
 C          0.8545103117       -4.8476573414        1.8953734883
 C          0.5651027885       -4.8989198920        0.3732120799
 C         -3.3073117614        2.5395986290        3.4636221652
 C         -3.7363238865        2.4882877813        1.9595878105
 C         -2.8255303945        3.0428017331       -3.6622130513
 C         -2.7020709543        2.5382598944       -5.1381952759
 C          4.7839749443       -0.3104856376       -1.2562481668
 C          4.8962241018       -0.7232498570       -2.7463403176
 Br         4.1302100067        1.0950667631        2.8720634991
 Br        -5.6621445789       -2.0626855838        0.0271672324
 Br         1.2586619828        5.5512907226       -1.6989050385
 Br        -0.5979096425       -4.6609858317       -3.9293909191
 N          1.2466516407       -3.5081103943        2.2122998527
 N         -0.5701090110       -4.0700444687        0.1205374135
 N         -2.2783209466        1.5663019908        3.6065241091
 N         -3.1591695427        1.9157752578       -2.8514438640
 N         -2.6027613643        2.8732671392        1.1815352511
 N         -1.6242875854        1.6082336888       -5.1413949005
 N          3.8208079001        0.7402895702       -1.1682467544
 N          3.6351289999       -1.2787317467       -3.1340498346
 H          0.7786981886       -7.5790636406        2.3612218912
 H          2.4913223025       -7.8902935634        2.0607533839
 H          1.1080055204       -8.2962428021        0.0176645476
 H          2.2744413693       -6.9945975210       -0.2351550418
 H         -5.3638981914        4.1685532946        4.3480875832
 H         -6.5084761050        2.8767064664        4.7246477989
 H         -6.4430841233        2.1006946566        2.3787523896
 H         -6.8937140072        3.8075761826        2.4395965081
 H         -2.6720401095        5.7504995833       -4.1978041280
 H         -4.4026820400        6.0198930135       -4.4273376273
 H         -3.2375049749        5.6247785544       -6.6006245062
 H         -4.4394629345        4.3728976953       -6.2706869134
 H          8.1747063060       -0.4462952468       -0.5903677139
 H          6.9817802087       -1.7229635945       -0.3344698859
 H          8.0908269817       -2.0299359586       -2.5240201564
 H          7.6360328287       -0.3915377051       -3.0026091145
 H          2.1678023659       -5.7641756040        3.3198836871
 H          2.8976454944       -5.4642473158        1.7399119716
 H          0.0488571969       -6.3509957165       -1.1182471429
 H         -0.6806516756       -6.6369509419        0.4635228839
 H         -4.8059023244        1.1694045628        4.1356473179
 H         -4.1927096868        2.2505052919        5.3908280019
 H         -4.5563203427        4.4629899248        1.9149593461
 H         -5.1903053598        3.3810517524        0.6710838622
 H         -4.8683865566        3.6535567142       -3.8307443969
 H         -3.9719215847        4.4540806887       -2.5367991788
 H         -1.4311017350        4.1360086302       -5.7756999696
 H         -2.3301427670        3.3565860764       -7.0810578189
 H          6.3858096188        1.1075457893       -1.3251303422
 H          6.0406939507        0.4839800766        0.2898489068
 H          5.6993581674       -2.6686254674       -2.3601059061
 H          6.0612698167       -2.0414398012       -3.9707698102
 H         -1.2958697703       -0.7263734786        3.3465871310
 H         -0.4007188173       -0.6316808229       -1.7783044381
 H          0.2842802310        0.3360763166        0.5007475570
 H          0.7233175111        0.8808202105       -4.6611654665
 H          2.8383166003       -1.5780892082        2.6391566719
 H         -3.0010766994       -3.3913455288        0.1847162071
 H          1.5606625383        2.4469655085        3.3886625815
 H         -4.5581435597        0.2715360731       -1.4506873282
 H         -1.0362095377        4.3216367964       -0.2601904191
 H         -2.1413708346       -2.2841884990       -4.7476293332
 H          2.8784933645        3.0581681502       -1.5220074587
 H          1.9082035332       -3.0897773254       -3.5878817813
 H         -0.6092110289       -3.0166584124        2.9914166153
 H          0.5154514656       -2.6515035989       -0.9319589942
 H         -0.7660765502        2.9811091811        3.5115962792
 H         -1.1632937190        1.4785661390       -2.5099224445
 H         -1.9469645746        0.9139968562        1.0255291694
 H         -2.8870634505       -0.0346388377       -5.0783284139
 H          2.4428931434       -0.4137821516       -0.1352428898
 H          3.0293376973        0.4577263958       -4.0873684235
 H         -0.0734132937       -5.1361041357        2.4176885825
 H          1.4637981602       -4.5378857272       -0.1575808692
 H         -2.9460543703        3.5622807040        3.6687804290
 H         -4.0359900691        1.4476108973        1.7532193107
 H         -1.8422744083        3.4601685052       -3.3895919583
 H         -3.6626114447        2.0652474440       -5.4069173580
 H          4.4753182604       -1.1995193071       -0.6782105536
 H          5.1359233769        0.1861069010       -3.3231248984
 C          2.4938359606       -0.4180890433        9.8322334565
 C          1.5667416365        0.7774336357        9.6056174060
 O          2.8436854742       -1.0174631480        8.5954500647
 C          3.4578793958       -0.0700222760        7.7390058121
 C          2.5320536041        1.1264290871        7.5114688458
 O          2.1768705770        1.7254293223        8.7451157574
 H          1.9964044958       -1.1921899868       10.4164775093
 H          0.6226757167        0.4320649245        9.1597283619
 H          4.4005252247        0.2756008382        8.1868035835
 H          1.6221917990        0.7926818719        6.9905248989
 H          1.3675297007        1.2999449455       10.5411639804
 H          3.6611293518       -0.5911835168        6.8035932810
 H          3.0330370158        1.9012986587        6.9311935632
 H          3.4048146400       -0.0844769632       10.3493711717