142
-211.13192303
 C          3.8449253883       -6.5019222575        2.7269215416
 C          3.1600119124       -6.7810393199        1.3927434888
 C         -4.1445535202        3.0409343864        5.4930640085
 C         -4.8466254047        2.5650842589        4.2253779332
 C         -4.2101657358        4.1421861772       -3.9885522237
 C         -4.3792959672        3.3525553723       -5.2825138335
 C          7.7287271142       -0.2411633962       -2.0253640788
 C          7.5631297621       -0.8747548303       -3.4030730061
 C          4.1179449931       -5.0101370250        2.8835638078
 C          1.8669917752       -5.9822535176        1.2786728257
 C         -2.7837541702        2.3682695740        5.6293757981
 C         -3.9924726652        2.8560351548        2.9965796010
 C         -4.1775339828        3.1946507206       -2.7946808409
 C         -3.2511612450        2.3394350692       -5.4395151695
 C          6.5662108506        0.6983571347       -1.7275060327
 C          6.2357933530       -1.6196569545       -3.4899043414
 C          1.4844538706        0.2180853920        3.9192912969
 C         -0.6827270117       -1.0687549426       -0.4261622136
 C          1.1943045324        1.2748517294        0.4272255545
 C          0.3537960800       -0.8828492959       -3.9506893296
 C          3.6845529296       -0.0110538652        2.9675415292
 C         -1.5540992407       -2.3251183301        1.4313001784
 C          2.7165204042        2.1829488091        3.2720375578
 C         -2.8736909077       -0.5569226198        0.4321397994
 C         -0.0292708352        3.2707476980       -0.1347757960
 C         -1.0008277339       -2.7791664720       -3.3432946334
 C          2.0144601450        2.7272929283       -1.3082731202
 C          1.4079313020       -2.9104514980       -3.1913589454
 C          2.3614204154       -2.0413643940        3.5058936832
 C          0.7084356444       -2.8485863318        0.5570862127
 C          0.3832163843        2.4253063675        4.0408194654
 C         -1.9566155364        0.7349746233       -1.4888800647
 C         -0.8807228067        1.7706426070        1.6473953172
 C         -2.1083036747       -0.6602451957       -3.9540904325
 C          3.2806939431        0.6725212762       -0.7340002878
 C          2.8041443763       -0.9279057893       -3.7162740798
 C          2.5271442598       -0.5941091863        3.4896847199
 C         -0.5278843075       -2.0797838632        0.5172700718
 C          1.5585068502        1.6041508969        3.7889884993
 C         -1.8497166205       -0.3092878335       -0.4811503285
 C          0.1021176653        2.1137236770        0.6319406206
 C         -0.9043304126       -1.4608420503       -3.7860333177
 C          2.1546561088        1.5739566688       -0.5343769463
 C          1.5088642411       -1.5903070332       -3.6383275480
 C          3.7626133361        1.3643576261        2.8837131244
 C         -2.6996358475       -1.5551767964        1.3737300587
 C          0.9251004139        3.5502689210       -1.0953345078
 C          0.1581298706       -3.4822937538       -3.0650471554
 C          2.8224924088       -4.2065166810        2.7802196879
 C          2.1404763589       -4.4826030978        1.4170480608
 C         -1.9018133071        2.6698111817        4.4209903769
 C         -2.6233471681        2.1950498289        3.1153686882
 C         -3.0375723910        2.1904524489       -2.9301951093
 C         -3.2010053864        1.3774373462       -4.2542342787
 C          5.2315949564       -0.0469633455       -1.7976926540
 C          5.0642490643       -0.6820832122       -3.2012980085
 Br         5.3408550572        2.1639754039        2.1620660554
 Br        -4.0791598980       -1.8578957671        2.6515718727
 Br         0.7175219225        5.1125283017       -2.1736057191
 Br         0.0171199889       -5.2867302936       -2.4528192852
 N          3.1125783605       -2.8054605741        2.8381383745
 N          0.9006493496       -3.7724149850        1.3939624889
 N         -0.6933006092        1.9210883608        4.4755075308
 N         -3.0517853328        1.2588146215       -1.8436084159
 N         -1.7914816050        2.5669575110        2.0163070610
 N         -2.0507688318        0.5427871978       -4.3409066371
 N          4.1625915184        0.8821160790       -1.6109080394
 N          3.8405352745       -1.4254460778       -3.1942080874
 H          3.2031717353       -6.8409538384        3.5431810352
 H          4.7855133028       -7.0520331489        2.7870355316
 H          2.9353883496       -7.8448716082        1.3017518542
 H          3.8290639182       -6.5070199193        0.5740630902
 H         -4.0124693905        4.1247037912        5.4534428948
 H         -4.7537949896        2.8067355189        6.3674681981
 H         -5.0252179156        1.4899000703        4.2929070056
 H         -5.8116375878        3.0640502682        4.1244801724
 H         -3.2798515518        4.7128525078       -4.0274994214
 H         -5.0342207957        4.8474633539       -3.8707732845
 H         -4.3775923840        4.0304516238       -6.1374287695
 H         -5.3384638668        2.8298116555       -5.2676963100
 H          8.6647920490        0.3175486334       -1.9795610709
 H          7.7664351211       -1.0245786038       -1.2652260122
 H          8.3827012301       -1.5687399499       -3.5970578714
 H          7.5928887437       -0.0954589296       -4.1678589014
 H          4.5803404480       -4.8062111003        3.8515334589
 H          4.8010728646       -4.6665835656        2.1048743457
 H          1.3894211613       -6.1644855712        0.3142152150
 H          1.1673937858       -6.2787004044        2.0616957742
 H         -2.9034677825        1.2865551300        5.7076555887
 H         -2.2724575397        2.7187099761        6.5284061799
 H         -3.8492773180        3.9312075534        2.8767734441
 H         -4.4791833913        2.4726292370        2.0976714981
 H         -5.1183938335        2.6472821976       -2.7261233560
 H         -4.0401606403        3.7513669272       -1.8661066222
 H         -2.2902710405        2.8522759869       -5.5052899436
 H         -3.3860890443        1.7573114581       -6.3534331142
 H          6.5432530918        1.5145141448       -2.4512520469
 H          6.6713910899        1.1345842405       -0.7323143930
 H          6.2117665850       -2.4353904751       -2.7653416141
 H          6.1032620798       -2.0489343860       -4.4851539295
 H          0.5790491242       -0.2087718815        4.3219967358
 H          0.1126160814       -0.8703298665       -1.1306162373
 H          1.2975377932        0.3815003324        1.0267529672
 H          0.4054972089        0.1385931286       -4.2943469856
 H          4.4888737843       -0.6474419822        2.6349830840
 H         -1.4270187099       -3.1052497359        2.1645893209
 H          2.7896121725        3.2546025203        3.1631323558
 H         -3.7707713674        0.0404945136        0.4116229414
 H         -0.8767139404        3.9155476778        0.0332241221
 H         -1.9675200599       -3.2408408004       -3.2096933514
 H          2.7607694734        2.9500737596       -2.0537313014
 H          2.3086715960       -3.4528336141       -2.9525416055
 H          1.5091755146       -2.4165227304        4.0891112511
 H          1.4645202935       -2.5634656925       -0.1921494201
 H          0.4669814855        3.4867583296        3.7648218491
 H         -0.9979827010        1.0376047577       -1.9362969619
 H         -0.7715898705        0.7638951491        2.0767985704
 H         -3.0552389754       -1.1448917757       -3.6744176783
 H          3.3049684385       -0.2053466719       -0.0691638950
 H          2.8097065892        0.0481980675       -4.2207917102
 H          2.1142287362       -4.5073042910        3.5709900476
 H          2.8205123442       -4.1421071412        0.6158916895
 H         -1.7201775837        3.7545840557        4.3247410064
 H         -2.7265678123        1.1008671147        3.1952932989
 H         -2.0684442180        2.7106182746       -2.9995399742
 H         -4.1363568771        0.7959065746       -4.1758379836
 H          5.2042341149       -0.8577843920       -1.0481039082
 H          5.0349955891        0.1418661483       -3.9344834990
 C         -6.2395428820        0.5417129960       -0.7076202599
 C         -7.3869831370        1.4754286217       -1.0935535776
 O         -5.9539283914        0.6565526443        0.6784620048
 C         -7.1083072065        0.3783926777        1.4539507713
 C         -8.2556633587        1.3100156309        1.0628024293
 O         -8.5425153555        1.1950293025       -0.3213938726
 H         -5.3174562529        0.8056575629       -1.2300137895
 H         -7.0820619801        2.5193519209       -0.9304966376
 H         -7.4114864382       -0.6663273008        1.2962670206
 H         -7.9836716689        2.3498121425        1.2944233238
 H         -7.6760511182        1.3293647972       -2.1347372204
 H         -6.8209942734        0.5251761415        2.4944375096
 H         -9.1715192107        1.0393623846        1.5879547776
 H         -6.5207584843       -0.4974104221       -0.9354845219