142
-211.12992796
 C          2.3013364173       -6.5425246243        3.4221026007
 C          1.2355006556       -6.7894446863        2.3593565601
 C         -1.8631952516        5.2654591322        6.4868739605
 C         -3.0147232763        5.0470398987        5.5106395890
 C         -4.7733096064        5.4057789649       -2.1815803290
 C         -5.5194736854        4.6409413202       -3.2701915529
 C          5.8101619763       -1.9349769162       -3.4091427491
 C          5.0262010350       -2.5849978930       -4.5451672996
 C          2.9192708492       -5.1607043193        3.2419651478
 C          0.1604959993       -5.7113450271        2.4245059190
 C         -0.8157502780        4.1688409739        6.3305089904
 C         -2.4971994827        5.0042387589        4.0772022387
 C         -4.5635804980        4.5211163636       -0.9577971591
 C         -4.7583269882        3.3761237080       -3.6511796196
 C          5.1027827810       -0.6742596350       -2.9261091554
 C          3.6082129386       -2.9107140497       -4.0915770283
 C          1.9574292130        0.6734164782        3.8959783393
 C         -1.5893723352       -0.4031347201        0.7605276458
 C          0.9469878033        1.6444283492        0.4846583741
 C         -1.7262261954       -0.6383353673       -2.9209912658
 C          3.6522566094       -0.2836179143        2.4773119289
 C         -2.2899979067       -1.4050920641        2.8342428914
 C          3.4278225802        2.1160866222        2.6477169798
 C         -3.3979271518        0.5800373214        2.0107693090
 C          0.2525639099        3.8907817048       -0.0365238807
 C         -3.2059867392       -2.0418870242       -1.6395867701
 C          1.6518403076        2.6623941903       -1.5794537089
 C         -0.9763439581       -2.8022922874       -2.1779837327
 C          2.0850407303       -1.7779462329        3.6843154105
 C         -0.4357538883       -2.4340057485        1.5512946692
 C          1.5963391613        3.1203035157        3.9560470845
 C         -2.6827746760        1.6108142512       -0.1287613847
 C         -0.4671557996        2.8469293670        2.0954275576
 C         -3.9299043625        0.2411296322       -2.2206498880
 C          2.3825758108        0.3538476438       -1.0494037203
 C          0.5866565231       -1.3287307723       -3.4154443713
 C          2.5843361048       -0.4472102676        3.3636676041
 C         -1.4523081812       -1.4041566664        1.7174231842
 C          2.3593454811        1.9569802706        3.5291816467
 C         -2.5549971801        0.5906759013        0.9001021998
 C          0.2441167588        2.7966379320        0.8277471602
 C         -2.9581729384       -0.8391692841       -2.3000187957
 C          1.6557831122        1.5697618643       -0.7104643331
 C         -0.7276353529       -1.6024027680       -2.8488942329
 C          4.0602142372        0.9923518302        2.1457591324
 C         -3.2439839357       -0.4136234633        2.9598921663
 C          0.9497813770        3.7989851994       -1.2270066547
 C         -2.2132555181       -3.0046768947       -1.6002877802
 C          1.8519442598       -4.0694023345        3.3127661042
 C          0.7669240228       -4.3194256371        2.2340547062
 C         -0.2755432470        4.1253049668        4.9034458936
 C         -1.4595355748        3.8996535521        3.9057687316
 C         -3.7883255143        3.2599246954       -1.3246479183
 C         -4.5538807842        2.4717755122       -2.4385243180
 C          3.6797102826       -0.9863749287       -2.4596094791
 C          2.8863387789       -1.6527143750       -3.6114839373
 Br         5.5156299840        1.2185693140        0.9287448768
 Br        -4.3800490171       -0.4074719013        4.4961352055
 Br         0.9328310817        5.2884395038       -2.4233509581
 Br        -2.5557360607       -4.6459291406       -0.6850711920
 N          2.4476311809       -2.7978799719        3.0343059039
 N         -0.2556452233       -3.3384845324        2.4115459357
 N          0.5984008119        3.0153466051        4.7276313169
 N         -3.6733521067        2.3947740906       -0.1945633774
 N         -0.9138390228        3.9237296458        2.5864765884
 N         -3.7230423302        1.3636460262       -2.7677871628
 N          3.0138164346        0.2346746869       -2.1344799045
 N          1.5995609039       -2.0121356387       -3.1006472819
 H          1.8493035558       -6.6120725685        4.4140162336
 H          3.0823134917       -7.3016990558        3.3535802304
 H          0.7750579211       -7.7671607703        2.5094160090
 H          1.6976221715       -6.7827417731        1.3697644019
 H         -1.4025862468        6.2373821973        6.2955235399
 H         -2.2372886152        5.2655547211        7.5119155672
 H         -3.5153404698        4.1045155927        5.7435377673
 H         -3.7460429316        5.8507477385        5.6096945732
 H         -3.8033002514        5.7308713611       -2.5645149449
 H         -5.3379216824        6.2945492261       -1.8955424741
 H         -5.6402287391        5.2706350739       -4.1531084414
 H         -6.5146651760        4.3711619177       -2.9092743354
 H          6.8156335262       -1.6773555632       -3.7458874395
 H          5.9028585324       -2.6398361970       -2.5799618309
 H          5.5255293404       -3.5005820131       -4.8675330326
 H          4.9874288905       -1.9029918498       -5.3974990722
 H          3.6642400174       -4.9712737193        4.0175023029
 H          3.4170860431       -5.0929529788        2.2731731660
 H         -0.5918143639       -5.8728335456        1.6501574932
 H         -0.3426822563       -5.7364666353        3.3922807844
 H         -1.2491011514        3.1952652438        6.5652081451
 H          0.0195770058        4.3397311377        7.0127220809
 H         -2.0367001129        5.9567982147        3.8102496427
 H         -3.3176651090        4.8190179326        3.3815636593
 H         -5.5239718866        4.2262239276       -0.5319338630
 H         -4.0047450107        5.0594200053       -0.1901411902
 H         -3.7791753607        3.6318672523       -4.0593406915
 H         -5.3058367441        2.8169164332       -4.4127169262
 H          5.0454509819        0.0594877203       -3.7316173000
 H          5.6507509721       -0.2217228667       -2.0973919605
 H          3.6294017385       -3.6313140894       -3.2721187536
 H          3.0249378332       -3.3378860156       -4.9086259125
 H          1.1274904622        0.5728619810        4.5781271623
 H         -0.9459570528       -0.3991731699       -0.1079017574
 H          0.9477718161        0.8022995441        1.1621364027
 H         -1.5550890558        0.2993713640       -3.4265048852
 H          4.1324240777       -1.1585995523        2.0694260422
 H         -2.1754318583       -2.1835690504        3.5711884855
 H          3.7494142900        3.1035847523        2.3527450766
 H         -4.1462956042        1.3500862537        2.1071593637
 H         -0.2891696520        4.7807985156        0.2403605415
 H         -4.1556425648       -2.2131375858       -1.1553349677
 H          2.2006282149        2.5942445692       -2.5048945825
 H         -0.1947408322       -3.5427091723       -2.1232140636
 H          1.3488654012       -1.8281445194        4.4984843832
 H          0.1597826717       -2.3679851712        0.6269352725
 H          1.9052991286        4.0834456765        3.5240090869
 H         -1.8582543926        1.6458899334       -0.8562005796
 H         -0.5809016975        1.8789255694        2.6054829078
 H         -4.8220692293        0.0420573773       -1.6088043571
 H          2.3412220491       -0.4490473991       -0.2962332241
 H          0.6434860196       -0.4695218754       -4.0977412754
 H          1.3488022145       -4.0781313139        4.2945036775
 H          1.2462669836       -4.2384295614        1.2423786992
 H          0.2051165394        5.0819201397        4.6342149375
 H         -1.8915666762        2.9147654696        4.1479409277
 H         -2.8003590164        3.5145750935       -1.7424077162
 H         -5.5226254595        2.1562868371       -2.0135053212
 H          3.6947605420       -1.6863793891       -1.6057341646
 H          2.8074149649       -0.9175855048       -4.4303366381
 C          1.6255529232       -5.8474945106       -7.1476583025
 C          0.7057659757       -4.8939209391       -6.3827647398
 O          1.7552767289       -5.4374039072       -8.4982266001
 C          2.2454419958       -4.1094994716       -8.5722690759
 C          1.3261225694       -3.1546610117       -7.8085976370
 O          1.1952670027       -3.5648177073       -6.4569605318
 H          1.2081651797       -6.8541282445       -7.1725693856
 H         -0.3067948305       -4.9358764369       -6.8088653644
 H          3.2579637291       -4.0667530124       -8.1453674725
 H          0.3348625798       -3.1375957015       -8.2836374773
 H          0.6734912262       -5.1486772608       -5.3236557144
 H          2.2776525953       -3.8544022757       -9.6314734671
 H          1.7432178547       -2.1478731199       -7.7833984906
 H          2.6167928389       -5.8642716200       -6.6716712086