142
-211.12678231
 C          2.3893864017       -7.0036542334        2.6647964683
 C          1.7935832369       -7.3190435974        1.2966069473
 C         -5.4969721514        2.9112566410        5.1043257851
 C         -6.2066371135        2.5830786006        3.7945256578
 C         -5.6024969398        3.7329927527       -4.0403437128
 C         -5.7374982888        3.0035100729       -5.3732024513
 C          6.3920006975       -0.7781657428       -2.1335731334
 C          6.2343175797       -1.4109293976       -3.5124206421
 C          2.6367184049       -5.5058378657        2.8026980564
 C          0.4986219362       -6.5429106622        1.0894601311
 C         -4.1991478138        2.1198389099        5.2211623312
 C         -5.2955073389        2.8738998032        2.6071961687
 C         -5.5501512023        2.7345112649       -2.8893689246
 C         -4.5832293791        2.0264095967       -5.5664000742
 C          5.2522652616        0.1963810173       -1.8622934116
 C          4.8884121047       -2.1184103027       -3.6206462021
 C          0.0006106685       -0.2312047217        3.5669029708
 C         -2.0314215710       -1.5868661880       -0.6537545202
 C         -0.1832244012        0.9642568425        0.1025229210
 C         -0.9732641921       -1.2707223913       -4.1558540248
 C          2.2302753080       -0.5358670340        2.7081439357
 C         -3.0256550572       -3.0314319492        0.9951500218
 C          1.3311849214        1.6897902824        2.9832188622
 C         -4.3228960124       -1.2471863546        0.0045224557
 C         -1.2639470579        3.0399296172       -0.4656700516
 C         -2.3542744086       -3.1563472261       -3.5739762276
 C          0.7995108951        2.4060386175       -1.5556979728
 C          0.0498211738       -3.3125231923       -3.3904203354
 C          0.8363152881       -2.5221673176        3.2148505177
 C         -0.6691981382       -3.3975472524        0.3172392101
 C         -1.0041289950        2.0266744004        3.6929781544
 C         -3.3008876753        0.2404082234       -1.6974357709
 C         -2.2751275545        1.5582144069        1.2477490679
 C         -3.4355414332       -1.0276316632       -4.1827873667
 C          1.9276167601        0.2773998947       -0.9690254369
 C          1.4752963652       -1.3479917078       -3.8947085486
 C          1.0328851457       -1.0787955551        3.1817702251
 C         -1.9250879660       -2.6666139185        0.2175799821
 C          0.1335507968        1.1518522102        3.4524650174
 C         -3.2217600736       -0.8725533796       -0.7643994633
 C         -1.2351622885        1.8599987648        0.2766415276
 C         -2.2387513815       -1.8372867159       -4.0106822013
 C          0.8378577534        1.2297031106       -0.8049295613
 C          0.1699554921       -1.9922500592       -3.8322356123
 C          2.3604590823        0.8357026515        2.6288839027
 C         -4.2008544839       -2.3147950530        0.8747875986
 C         -0.2500782773        3.2859697800       -1.3731265929
 C         -1.2069456274       -3.8720424979       -3.2809776929
 C          1.3436717469       -4.7160164641        2.6035860107
 C          0.7365984287       -5.0364643884        1.2137387391
 C         -3.2693364248        2.4157739401        4.0473036708
 C         -4.0001252051        2.0749357187        2.7066075676
 C         -4.3882342586        1.7622815803       -3.0652136736
 C         -4.5299602017        1.0093476263       -4.4293695924
 C          3.8963450827       -0.5064927982       -1.9559073196
 C          3.7368139751       -1.1489306647       -3.3575819153
 Br         3.9933721998        1.5807882979        1.9747125823
 Br        -5.7017024944       -2.8049771332        1.9509850643
 Br        -0.3106023823        4.8877368825       -2.4130764622
 Br        -1.3745711675       -5.6744026067       -2.6693696340
 N          1.6300782411       -3.3137890907        2.6338935965
 N         -0.5164487026       -4.3575480983        1.1206633958
 N         -2.1196888972        1.5768977363        4.0871388751
 N         -4.3964618038        0.7776020195       -2.0310059864
 N         -3.1151812888        2.4187756122        1.6398693319
 N         -3.3742403630        0.1852815766       -4.5396510126
 N          2.8573295100        0.4611797529       -1.8010992958
 N          2.4972827662       -1.8650219439       -3.3632330702
 H          1.7003744244       -7.3317298184        3.4462606131
 H          3.3299023825       -7.5410539794        2.7972878070
 H          1.5908395506       -8.3878049822        1.2125353426
 H          2.5081066193       -7.0491729229        0.5158655239
 H         -5.2748285312        3.9802764169        5.1407704595
 H         -6.1441850506        2.6724264101        5.9497346527
 H         -6.4864553471        1.5272045716        3.7867380522
 H         -7.1193756827        3.1743878771        3.7060304602
 H         -4.6882693853        4.3308352420       -4.0435446283
 H         -6.4469363569        4.4090484996       -3.8974066446
 H         -5.7443303866        3.7228558393       -6.1936425144
 H         -6.6832269104        2.4570976484       -5.3955336000
 H          7.3430547845       -0.2471600848       -2.0707362765
 H          6.3913851503       -1.5597041629       -1.3706128475
 H          7.0372346675       -2.1284385558       -3.6897311520
 H          6.2997495233       -0.6352099830       -4.2785972297
 H          3.0383594959       -5.2742716864        3.7913482663
 H          3.3618206976       -5.1726830952        2.0582256477
 H          0.0812906530       -6.7501109016        0.1022579182
 H         -0.2417765540       -6.8358312090        1.8354241204
 H         -4.4084677307        1.0489853375        5.2345186660
 H         -3.6801817166        2.3739117285        6.1477262423
 H         -5.0459791880        3.9355230573        2.5697645955
 H         -5.7932121948        2.6108462801        1.6720453280
 H         -6.4773943314        2.1613741854       -2.8400210189
 H         -5.4244325813        3.2556182174       -1.9385674312
 H         -3.6335361970        2.5630866266       -5.5944422979
 H         -4.6943317622        1.4873934887       -6.5095350965
 H          5.2680637566        1.0094753613       -2.5896593470
 H          5.3508885165        0.6337037107       -0.8669877953
 H          4.8285559312       -2.9297702528       -2.8932312636
 H          4.7618658057       -2.5486269430       -4.6162691309
 H         -0.9351954714       -0.6268786728        3.9301357320
 H         -1.1834685848       -1.3015714836       -1.2601173794
 H         -0.1576510663        0.0561127042        0.6879253372
 H         -0.9062996037       -0.2480188308       -4.4932263218
 H          3.0255072210       -1.2010730834        2.4121078832
 H         -2.9338624259       -3.8677716983        1.6692117346
 H          1.4485533693        2.7587403485        2.8874846959
 H         -5.2421288162       -0.6921906268       -0.0921024082
 H         -2.0789404564        3.7304193153       -0.3197489551
 H         -3.3275024254       -3.6083720536       -3.4552753062
 H          1.5931006882        2.6027423714       -2.2583847737
 H          0.9419994977       -3.8644991294       -3.1417018026
 H         -0.0621801111       -2.8698365228        3.7432033678
 H          0.1329694298       -3.0550210612       -0.3557631423
 H         -0.8509894481        3.0900278453        3.4569149645
 H         -2.3356841290        0.5782263481       -2.1029259724
 H         -2.2729330975        0.5259114394        1.6278884342
 H         -4.3873571866       -1.5165222488       -3.9280696458
 H          1.8834222397       -0.6095088187       -0.3169140314
 H          1.5023263018       -0.3718034867       -4.3983354807
 H          0.5941653432       -4.9958153687        3.3632403071
 H          1.4482671410       -4.6924658957        0.4423435251
 H         -3.0033476100        3.4867282656        4.0154914474
 H         -4.2077107210        0.9924915714        2.7281288345
 H         -3.4277258913        2.3020121574       -3.1026075022
 H         -5.4612164397        0.4182007582       -4.3851960405
 H          3.8244047512       -1.3100310796       -1.2015726014
 H          3.7383713915       -0.3306066892       -4.0974796621
 C         10.5009531557        8.1593194323        4.1130762951
 C         11.1145412977        7.1418924964        5.0771373542
 O         10.8724566852        7.8657214213        2.7767964887
 C         10.4794844725        6.5489216966        2.4269559534
 C         11.0910237308        5.5306652561        3.3914706756
 O         10.7215097290        5.8251448186        4.7284237245
 H         10.8706268247        9.1639636522        4.3188822450
 H         12.2110270209        7.2191475819        5.0441449658
 H          9.3830614676        6.4717568454        2.4574221757
 H         12.1867879445        5.5500777143        3.3009297219
 H         10.7607059079        7.3063094474        6.0950523264
 H         10.8353236810        6.3847593494        1.4097678495
 H         10.7179920906        4.5272359965        3.1860823331
 H          9.4052419361        8.1367830736        4.2032553908