142
-211.12644374
 C         -1.6167312577       -7.0627772710        0.7636250908
 C         -1.8690608426       -6.8344239862       -0.7230550548
 C         -4.6738763569        4.9413495643        4.2449994762
 C         -4.9662520844        5.2742601212        2.7857544619
 C         -1.9695418293        7.2383444956       -3.6955166850
 C         -1.9135169077        6.9198986733       -5.1859453846
 C          6.6655115911       -2.1660324684       -1.2728799780
 C          6.6540620878       -2.3712023139       -2.7840641873
 C         -0.7890914782       -5.9207175339        1.3415997378
 C         -2.5741817463       -5.5016255462       -0.9425825676
 C         -3.9444554963        3.6070777847        4.3497023772
 C         -3.6726005277        5.3135288332        1.9804597587
 C         -2.6618092981        6.1121047903       -2.9367980855
 C         -1.1887622685        5.5995344058       -5.4193572747
 C          5.9456844457       -0.8733625938       -0.9087216471
 C          5.2211888154       -2.3972815457       -3.3028319398
 C         -0.9120037695       -0.1859644217        2.9522140675
 C         -2.0529189629        0.3168174951       -1.4979152497
 C          0.8140222873        1.7937381277        0.1004987830
 C          0.4050366941        0.9080944999       -4.4403066008
 C          1.0894321756       -1.4502830296        2.5111223984
 C         -4.0434725426       -0.7621569334       -0.6793098864
 C          1.2438404273        0.8475901963        3.2446286162
 C         -4.0929749042        1.5786724539       -1.2799039543
 C          0.8636740880        4.2019624940        0.0849470778
 C         -1.6450402260       -0.3248306531       -4.7221961294
 C          2.7758195922        2.9430003170       -0.6908418711
 C          0.4018247350       -1.4843060977       -4.1668778649
 C         -1.1253986581       -2.5079479785        2.1552362498
 C         -1.9631368351       -2.0825883003       -0.9279830660
 C         -0.7883835471        2.2103054638        3.5548961976
 C         -2.0542130750        2.6942506345       -2.1394439362
 C         -1.1551344956        3.0276708213        0.9140373897
 C         -1.6999054841        2.1383142561       -4.8530549704
 C          2.7527509470        0.4667245632       -0.6560194383
 C          2.5063668457       -0.2190483496       -3.8197388510
 C         -0.3052060806       -1.3722682448        2.5565485928
 C         -2.6954427039       -0.8283981959       -1.0368322370
 C         -0.1473391201        0.9322258366        3.2814204372
 C         -2.7434821598        1.5195926753       -1.6257712718
 C          0.1878498637        3.0120099040        0.3530465931
 C         -0.9635816415        0.8913054742       -4.7054621086
 C          2.1074937423        1.7494739170       -0.4112998400
 C          1.0902054043       -0.2679390252       -4.1594795382
 C          1.8358056892       -0.3446956797        2.8658485279
 C         -4.7142240866        0.4391346053       -0.8032207062
 C          2.1407528435        4.1442932985       -0.4416179998
 C         -0.9471980720       -1.4906524285       -4.4585012122
 C         -1.4854599976       -4.5762036842        1.1366485928
 C         -1.7535222717       -4.3429603528       -0.3742392335
 C         -2.6381654432        3.6272783792        3.5595889927
 C         -2.9320068329        3.9824584457        2.0644155820
 C         -1.9484375190        4.7810396963       -3.1538776611
 C         -1.8798323360        4.4550036420       -4.6822258060
 C          4.5022402095       -0.8853043775       -1.4142498714
 C          4.4821574907       -1.1070795806       -2.9500798060
 Br         3.7438569136       -0.4486556416        2.8045048258
 Br        -6.5519615775        0.5362545903       -0.2874153549
 Br         3.0478014139        5.7774215554       -0.8454526227
 Br        -1.8912298650       -3.1531369603       -4.4692723616
 N         -0.6292918324       -3.5224255101        1.5897424798
 N         -2.5064425944       -3.1362725147       -0.4968710181
 N         -2.0480673000        2.3324216625        3.5401134046
 N         -2.6762107694        3.7246691288       -2.5280282053
 N         -1.6726432106        4.0751932348        1.3988438486
 N         -1.1154408273        3.2590642167       -4.7882742588
 N          3.9083416197        0.3870606939       -1.1553444568
 N          3.1129051871       -1.2220083756       -3.3498340167
 H         -2.5718757650       -7.1226547842        1.2901788233
 H         -1.0892205415       -8.0061964695        0.9141019061
 H         -2.4845533918       -7.6393831533       -1.1275860374
 H         -0.9180747510       -6.8350375846       -1.2600416022
 H         -4.0560601517        5.7290606427        4.6821875801
 H         -5.6053876939        4.8899432205        4.8109556005
 H         -5.6327605144        4.5171929655        2.3664719100
 H         -5.4673953997        6.2409542937        2.7155251782
 H         -0.9545665346        7.3640666053       -3.3120015056
 H         -2.5099331175        8.1720479848       -3.5321467955
 H         -1.3946723087        7.7176799227       -5.7196801416
 H         -2.9289202114        6.8525214935       -5.5830977022
 H          7.6925286122       -2.1234188848       -0.9070578151
 H          6.1688166406       -3.0078893439       -0.7857173687
 H          7.1499267544       -3.3091712526       -3.0394890721
 H          7.2012524693       -1.5580133225       -3.2661876038
 H         -0.6272391753       -6.0693561477        2.4111926987
 H          0.1872238246       -5.8792295573        0.8558165531
 H         -2.7319471159       -5.3232962000       -2.0080262502
 H         -3.5489137294       -5.5038258030       -0.4522706723
 H         -4.5700139992        2.8027128290        3.9592187386
 H         -3.7142234597        3.3794625338        5.3926234513
 H         -3.0146954171        6.0988368615        2.3563440532
 H         -3.8851124185        5.5235940957        0.9307161492
 H         -3.6950881820        6.0075446835       -3.2716213337
 H         -2.6726305855        6.3258755835       -1.8665540976
 H         -0.1589941621        5.6656271617       -5.0643044033
 H         -1.1636019332        5.3607612591       -6.4845662811
 H          6.4569891177       -0.0178636759       -1.3528370531
 H          5.9319770329       -0.7345427543        0.1740466149
 H          4.6765220368       -3.2351776422       -2.8644264621
 H          5.2096628802       -2.5187788123       -4.3879503298
 H         -1.9867466858       -0.0983449130        2.9883470893
 H         -1.0087310977        0.2736012860       -1.7741484302
 H          0.2896036254        0.8738345383        0.3176820738
 H          0.9119964420        1.8604959197       -4.4335658137
 H          1.5515536273       -2.3734986252        2.1998667026
 H         -4.5306407295       -1.6534561064       -0.3181809990
 H          1.8497395922        1.7042286249        3.4987785629
 H         -4.6195416917        2.5135163505       -1.3856293070
 H          0.3715750689        5.1396845294        0.2872839458
 H         -2.7045736560       -0.3543948203       -4.9273197514
 H          3.7755513410        2.8983176456       -1.0917213393
 H          0.9409645147       -2.3911919896       -3.9441717730
 H         -2.2008263195       -2.4137066122        2.3599536747
 H         -0.9117217887       -2.0510954806       -1.2544313179
 H         -0.1153238367        3.0632399020        3.7251577944
 H         -0.9575481104        2.6198958769       -2.1763604169
 H         -1.6845133835        2.0639608946        0.8969500785
 H         -2.7889258950        2.0471469802       -4.9755650574
 H          2.1691725881       -0.4229242683       -0.3715891870
 H          3.0012111779        0.7490684564       -3.9791452716
 H         -2.4620099586       -4.5582975776        1.6492189048
 H         -0.7766576572       -4.2720053367       -0.8835893970
 H         -1.9503152747        4.3961533169        3.9523444318
 H         -3.5478934172        3.1626351550        1.6591362773
 H         -0.9075558407        4.8281968096       -2.7930089921
 H         -2.9160483481        4.3235482418       -5.0389990536
 H          3.9336872044       -1.7080085342       -0.9465482368
 H          4.9723910190       -0.2345912075       -3.4141068300
 C          5.9307195064      -10.0751722553        8.2668294878
 C          7.0554348948       -9.9012718867        9.2895524998
 O          4.6669307972      -10.0750922748        8.9098435819
 C          4.4851403410       -8.8820000549        9.6539162770
 C          5.6087670655       -8.7112557433       10.6781016171
 O          6.8722586115       -8.7091264866       10.0349705258
 H          6.0129432921      -11.0350638901        7.7567620716
 H          7.0683149716      -10.7630725811        9.9724181326
 H          4.4765339132       -8.0204715026        8.9706031652
 H          5.5691662063       -9.5330330850       11.4077070766
 H          8.0214996431       -9.8052127813        8.7937725878
 H          3.5176971716       -8.9747275848       10.1476572548
 H          5.5263191813       -7.7534428769       11.1919891258
 H          5.9699401473       -9.2562781551        7.5340354292