142
-211.12668161
 C          0.5311470539       -7.4365345466        1.0591875384
 C          0.3937443225       -7.3386679593       -0.4566796180
 C         -5.8905150516        3.4746990763        3.4870863107
 C         -6.1288683088        3.6204143701        1.9876463176
 C         -2.8725350622        6.0193736463       -4.5733019175
 C         -2.6338586737        5.6226846664       -6.0265688119
 C          7.1715129513       -1.1578002432       -0.5538209805
 C          7.3840125482       -1.4402606376       -2.0375146288
 C          0.9659408365       -6.0958223433        1.6396401098
 C         -0.6019176101       -6.2472720886       -0.8302121166
 C         -4.8666638392        2.3785411632        3.7589661641
 C         -4.8200142198        3.9242212515        1.2674198733
 C         -3.3563901437        4.8198068178       -3.7664654446
 C         -1.6229724975        4.4846147344       -6.1082459433
 C          6.1494756824       -0.0431527676       -0.3666388708
 C          6.0626749584       -1.8115581154       -2.7004923105
 C         -0.8225800987       -0.5593210269        2.8870746016
 C         -1.5199500922       -0.5557924172       -1.8219808545
 C          0.5075574596        1.4531344364        0.0123277219
 C          0.8402047449        0.3115283110       -4.6029479325
 C          1.4767631919       -1.2508233063        2.6994477463
 C         -3.2451539114       -2.0410881141       -1.0389667849
 C          0.9413709509        1.0349188566        3.2725602690
 C         -3.8166967344        0.1694949781       -1.8336911918
 C          0.0074223462        3.7964113451       -0.2334227216
 C         -0.8717063845       -1.3407209320       -4.9786643344
 C          2.2138309780        2.9632272499       -0.7647837167
 C          1.2978867668       -2.0093007187       -4.1507551608
 C         -0.3299245801       -2.8814703165        2.2260578624
 C         -0.8892635917       -2.8084617878       -1.0394006446
 C         -1.3985464081        1.8094733642        3.3098240954
 C         -2.0460215249        1.6981120586       -2.6552480120
 C         -1.7505272082        2.2482326095        0.5784567043
 C         -1.4203885230        1.0421342202       -5.2931509575
 C          2.7490141000        0.5587572668       -0.4991063757
 C          3.0422354433       -0.3094195507       -3.6874794768
 C          0.1141823004       -1.5523195189        2.6252764705
 C         -1.8975408872       -1.7914290335       -1.3049281715
 C         -0.4188958475        0.7395600541        3.1930057901
 C         -2.4702603963        0.4266158958       -2.0893174972
 C         -0.3990091688        2.5063287160        0.1055282461
 C         -0.4597178844       -0.0088386267       -4.9918594114
 C          1.8139392106        1.6723255152       -0.4143162732
 C          1.7165306509       -0.6760718190       -4.1684859395
 C          1.8634573716        0.0315295068        3.0321806287
 C         -4.1769039470       -1.0562283649       -1.3048930885
 C          1.3035575976        3.9982780692       -0.6704552089
 C          0.0182229362       -2.3168473694       -4.5662045320
 C         -0.0270298398       -4.9919740295        1.2781837023
 C         -0.1715826868       -4.8933276833       -0.2628418109
 C         -3.5431591632        2.6777758061        3.0595433881
 C         -3.7881895583        2.8299257735        1.5216501789
 C         -2.3502671181        3.6750720820       -3.8298773096
 C         -2.1005361424        3.2678123200       -5.3198201509
 C          4.8141778764       -0.4062126044       -1.0190912209
 C          5.0287409842       -0.6998288156       -2.5267525084
 Br         3.7257530038        0.4473396793        3.1320635451
 Br        -6.0190803935       -1.3921593270       -0.9237966783
 Br         1.8461831199        5.7617378243       -1.1678957840
 Br        -0.5577065276       -4.1387278472       -4.5406691932
 N          0.4688102744       -3.7328618561        1.7448061709
 N         -1.1864294709       -3.9280548388       -0.5405734651
 N         -2.6400101487        1.5870821333        3.2027968407
 N         -2.8616790391        2.5242641628       -3.1575115845
 N         -2.5377734440        3.1755685656        0.9256821727
 N         -1.0915632209        2.2643668633       -5.2827233287
 N          3.9289152249        0.7095690499       -0.9182529128
 N          3.7732732914       -1.1287928677       -3.0640761694
 H         -0.4279094545       -7.7271073359        1.4937433762
 H          1.2650423707       -8.2007012157        1.3207055934
 H          0.0545263315       -8.2917750462       -0.8652850396
 H          1.3662106573       -7.1098922998       -0.8980359495
 H         -5.5255606481        4.4213491824        3.8921732333
 H         -6.8262133202        3.2300342335        3.9922604480
 H         -6.5524479933        2.6933589411        1.5947977826
 H         -6.8426120729        4.4238465364        1.7988687425
 H         -1.9425215290        6.3958776779       -4.1414270098
 H         -3.6157759597        6.8164742465       -4.5205436684
 H         -2.2619971355        6.4789236035       -6.5915434025
 H         -3.5766419687        5.3043509152       -6.4773992771
 H          8.1139589596       -0.8648776349       -0.0886135465
 H          6.8172115504       -2.0631756050       -0.0562231859
 H          8.0966525960       -2.2567545661       -2.1655753617
 H          7.7972615039       -0.5526774468       -2.5217876519
 H          1.0390348572       -6.1561296995        2.7274614274
 H          1.9468347045       -5.8166784076        1.2511958353
 H         -0.6844681690       -6.1591988971       -1.9151901323
 H         -1.5906582518       -6.4856793818       -0.4352429370
 H         -5.2370841636        1.4170737618        3.3995971770
 H         -4.6797207712        2.2887658025        4.8310368137
 H         -4.4082057880        4.8743344862        1.6115688230
 H         -4.9868438164        3.9979307951        0.1913362349
 H         -4.3120048139        4.4618433522       -4.1529649868
 H         -3.4972182802        5.0974778157       -2.7203637508
 H         -0.6613080571        4.8027424834       -5.7023347441
 H         -1.4685341098        4.1857832058       -7.1471031755
 H          6.5112349732        0.8817803223       -0.8184298848
 H          5.9778143701        0.1448199818        0.6949524531
 H          5.6623311671       -2.7255371518       -2.2585306419
 H          6.2074864053       -1.9890265923       -3.7681496271
 H         -1.8800578873       -0.7658957424        2.8298801841
 H         -0.4783311642       -0.3562219619       -2.0303804928
 H          0.1917013617        0.4562611947        0.2856871240
 H          1.1378928052        1.3485006438       -4.6198395893
 H          2.1960980144       -2.0272617659        2.4936224465
 H         -3.5277339448       -3.0000277236       -0.6355150638
 H          1.2696048127        2.0360989148        3.5081397783
 H         -4.5452576936        0.9346492688       -2.0483788139
 H         -0.7002563699        4.6057878875       -0.1529379979
 H         -1.8752719835       -1.6045412754       -5.2767085070
 H          3.2268081565        3.1226474333       -1.0974402668
 H          1.9842788889       -2.7684162178       -3.8112570179
 H         -1.4041629192       -3.0804317355        2.3434541169
 H          0.1439305088       -2.5347104662       -1.3061270290
 H         -0.9924060771        2.8228841681        3.4431079812
 H         -0.9627052935        1.8862618875       -2.6268595215
 H         -2.0370708445        1.1873501599        0.6236784866
 H         -2.4534258379        0.7128297002       -5.4776191117
 H          2.3574422735       -0.4172078783       -0.1709204142
 H          3.3477166864        0.7290582436       -3.8762803157
 H         -1.0263929265       -5.2148108160        1.6887236395
 H          0.8066926647       -4.5924871816       -0.6774388981
 H         -3.1121344205        3.6278632950        3.4203998459
 H         -4.1536688188        1.8538326385        1.1624412590
 H         -1.3749671241        3.9856904415       -3.4201257119
 H         -3.0551575464        2.8866345189       -5.7222022945
 H          4.3886420081       -1.3125143944       -0.5533090800
 H          5.3765198814        0.2351974262       -2.9976258041
 C          4.0492056581       -1.0835781279       11.3471580887
 C          2.5636048173       -1.3062748968       11.0565447740
 O          4.4576995515       -1.8496456175       12.4677257712
 C          4.1929213744       -3.2262336231       12.2549994140
 C          2.7073365642       -3.4491252453       11.9647642523
 O          2.2977939984       -2.6827237202       10.8440958259
 H          4.2447125273       -0.0418632675       11.6019227506
 H          1.9645773347       -0.9431948455       11.9042386505
 H          4.7917703004       -3.5887776312       11.4070244335
 H          2.1134617334       -3.1602514918       12.8439751459
 H          2.2639198265       -0.7932351067       10.1425984519
 H          4.4930183459       -3.7392183961       13.1687341970
 H          2.5115839440       -4.4906915561       11.7096324044
 H          4.6430282002       -1.3721869863       10.4677868615