142
-211.13350406
 C          3.3965222946       -6.7935105684        2.9175831283
 C          2.8359898752       -7.1760916403        1.5516791957
 C         -5.0908697510        2.7294183473        5.0896864135
 C         -5.7781366545        2.3617597710        3.7786873525
 C         -5.2977300622        3.3568932955       -3.8360791180
 C         -5.3555677700        2.6318046697       -5.1767314665
 C          7.0872429368       -0.0206097850       -2.0955764016
 C          6.9723791874       -0.6862043467       -3.4631124480
 C          3.5405161906       -5.2799403983        3.0262473926
 C          1.4929024359       -6.4947678007        1.3194940242
 C         -3.7549347687        2.0053428954        5.2115902399
 C         -4.8802524714        2.7004146827        2.5942059442
 C         -5.1710066919        2.3550550987       -2.6939380636
 C         -4.1176616486        1.7624775358       -5.3658744677
 C          5.8692440944        0.8547008613       -1.8266296390
 C          5.6934015881       -1.5114417080       -3.5451757326
 C          0.5666741399       -0.1602382733        3.6262512355
 C         -1.3512371078       -1.6998404602       -0.4525611661
 C          0.3664616734        1.1559125392        0.1167773626
 C         -0.2334620922       -1.1971412367       -3.9909118350
 C          2.8223870547       -0.3566067457        2.8033778227
 C         -2.2629427315       -3.2404923635        1.1568450546
 C          1.8001214427        1.8227988505        3.0277717228
 C         -3.6724097718       -1.5415960587        0.1706318780
 C         -0.8770776388        3.1336335932       -0.4666468982
 C         -1.4243724531       -3.2069025291       -3.4044314374
 C          1.2423683660        2.6711963499       -1.5359875916
 C          0.9856229620       -3.1344690244       -3.2420978914
 C          1.5383915451       -2.4077212612        3.3351852680
 C          0.1228050437       -3.4253419039        0.5137340802
 C         -0.5496568924        2.0525353342        3.7093486762
 C         -2.7408216512        0.0393003108       -1.4972865991
 C         -1.7770029439        1.5809516177        1.2446178388
 C         -2.7073190839       -1.1888525097       -4.0031077405
 C          2.5399743839        0.6480588798       -0.9311628381
 C          2.2153494382       -1.0461197472       -3.7670982873
 C          1.6498059684       -0.9564891933        3.2707356654
 C         -1.1800300809       -2.7835198031        0.4034904766
 C          0.6279462358        1.2258347539        3.4910541380
 C         -2.5902080741       -1.0755813382       -0.5750143185
 C         -0.7564697416        1.9629082819        0.2806600083
 C         -1.4381894202       -1.8815063163       -3.8369552892
 C          1.3715525016        1.5044293156       -0.7803315181
 C          0.9762774109       -1.8081240218       -3.6820901840
 C          2.8771550165        1.0185636863        2.7019760062
 C         -3.4854589586       -2.6097095908        1.0285237233
 C          0.1203117663        3.4594262235       -1.3674709108
 C         -0.2115514678       -3.8108176961       -3.1230146423
 C          2.1999697804       -4.5817611442        2.8009519057
 C          1.6246304069       -4.9736657644        1.4150948189
 C         -2.8349125588        2.3451137373        4.0414693374
 C         -3.5420604176        1.9754057098        2.6961313115
 C         -3.9287041749        1.4866541746       -2.8643578426
 C         -3.9861628215        0.7413403856       -4.2386984254
 C          4.5786744567        0.0360877497       -1.8961390204
 C          4.4624715090       -0.6443360291       -3.2848973773
 Br         4.4750844039        1.8395318752        2.0594191554
 Br        -4.9622502913       -3.2240707001        2.0736454424
 Br        -0.0657908933        5.0468477129       -2.4154201521
 Br        -0.2019888788       -5.6236132943       -2.5187636705
 N          2.3959436526       -3.1637909021        2.7988425791
 N          0.3280274810       -4.3859659805        1.3046844819
 N         -1.6507775031        1.5551957331        4.0882014417
 N         -3.8708443135        0.4912035603       -1.8423226561
 N         -2.6746948089        2.3808492349        1.6368527402
 N         -2.7584326755        0.0288518255       -4.3447938193
 N          3.4616550194        0.9135087275       -1.7500845959
 N          3.2928947900       -1.4695670488       -3.2630847198
 H          2.7244334390       -7.1520800145        3.7003997389
 H          4.3702534811       -7.2626647419        3.0682265745
 H          2.7077060547       -8.2577233451        1.4879419267
 H          3.5370627499       -6.8732776646        0.7708622548
 H         -4.9237677788        3.8084404262        5.1237894634
 H         -5.7274332852        2.4597062790        5.9339165582
 H         -6.0000829463        1.2922487143        3.7716458400
 H         -6.7213789038        2.9025111938        3.6863205137
 H         -4.4386293174        4.0314203875       -3.8240019527
 H         -6.1988936656        3.9558946491       -3.6959252737
 H         -5.4176911642        3.3557324838       -5.9907728978
 H         -6.2491449818        2.0044754900       -5.2138010651
 H          7.9887072196        0.5923525376       -2.0508767473
 H          7.1621550268       -0.7868181268       -1.3209400576
 H          7.8337221234       -1.3327468264       -3.6390420308
 H          6.9611734705        0.0801200794       -4.2413726441
 H          3.9167542554       -5.0017830718        4.0128923594
 H          4.2482079511       -4.9136256554        2.2805949800
 H          1.0999492076       -6.7484303440        0.3330791879
 H          0.7677351531       -6.8234193129        2.0655481530
 H         -3.9099653823        0.9252596221        5.2251089985
 H         -3.2527247533        2.2856667452        6.1398222687
 H         -4.6893954902        3.7741146681        2.5565087315
 H         -5.3601469984        2.4087988659        1.6582777337
 H         -6.0461810281        1.7042191669       -2.6597506051
 H         -5.0995956454        2.8758522306       -1.7374789852
 H         -3.2189332086        2.3812888531       -5.3770432132
 H         -4.1700047145        1.2260921256       -6.3155473561
 H          5.8077126205        1.6550958388       -2.5655396987
 H          5.9376181086        1.3122875748       -0.8378524692
 H          5.7127757738       -2.3124152091       -2.8042161837
 H          5.5958610861       -1.9679928367       -4.5322748286
 H         -0.3508343398       -0.6012733359        3.9841922551
 H         -0.5170042613       -1.3417506301       -1.0392079725
 H          0.4594580385        0.2528814390        0.7032983161
 H         -0.2672093727       -0.1722145207       -4.3264321903
 H          3.6569677216       -0.9826776191        2.5304863642
 H         -2.1201091089       -4.0788573549        1.8193901860
 H          1.8506464381        2.8955022747        2.9149124501
 H         -4.6284372229       -1.0542777220        0.0660091101
 H         -1.7473278633        3.7548706599       -0.3290421579
 H         -2.3490886852       -3.7500826622       -3.2802067701
 H          2.0236030591        2.9316262104       -2.2316579715
 H          1.9285047987       -3.6001131867       -3.0037746140
 H          0.6490808031       -2.7961112894        3.8507778564
 H          0.9105804460       -3.0173031074       -0.1393835908
 H         -0.4308250548        3.1197993778        3.4754271887
 H         -1.7996991941        0.4569851145       -1.8840209368
 H         -1.7067543194        0.5484424354        1.6168821847
 H         -3.6093080911       -1.7699206825       -3.7615282478
 H          2.5634061840       -0.2414689677       -0.2816968240
 H          2.1415660245       -0.0709468496       -4.2680863280
 H          1.4642649680       -4.8915323865        3.5623947062
 H          2.3152167424       -4.5947804951        0.6410959516
 H         -2.6142071965        3.4263874668        4.0131035179
 H         -3.6872231818        0.8825860801        2.7069765069
 H         -3.0162489101        2.1051812592       -2.8793779989
 H         -4.8599490945        0.0672811794       -4.2126294929
 H          4.5814053718       -0.7572021166       -1.1280248359
 H          4.3822141086        0.1574606010       -4.0382525856
 C          1.3362419358        5.7785187810        1.4848387800
 C          2.6201471081        6.4734412593        1.0302259307
 O          1.5424795486        5.0938118321        2.7106552709
 C          2.0144019491        5.9861842382        3.7099631952
 C          3.2993673736        6.6759201853        3.2501839142
 O          3.0833781630        7.3634706266        2.0303270365
 H          1.0261745065        5.0215365750        0.7650541065
 H          3.3929474655        5.7203518780        0.8183955972
 H          1.2428219955        6.7412877745        3.9155722949
 H          4.0938528042        5.9277190539        3.1165169823
 H          2.4382213804        7.0787645579        0.1423463229
 H          2.1915056263        5.3831855949        4.6011244514
 H          3.6152310594        7.4273727272        3.9736558252
 H          0.5376747037        6.5225723282        1.6126154024