142
-211.12710584
 C          5.7552616876       -5.4438691831        3.5690472439
 C          4.9625741829       -6.2106168286        2.5154096982
 C         -3.7147504906        2.8955261010        6.2641771352
 C         -4.5959293782        2.1278804595        5.2839306334
 C         -6.1614334988        1.4181535836       -2.3504268881
 C         -6.4030200809        0.3782610962       -3.4399005713
 C          6.7021180649        0.1781197657       -3.3240460559
 C          6.3917693096       -0.8011779515       -4.4514654455
 C          5.6153556795       -3.9420154476        3.3489390014
 C          3.4955590449       -5.7997689066        2.5510046681
 C         -2.2647251744        2.4396653621        6.1470507511
 C         -4.0926724352        2.3136263666        3.8568321677
 C         -5.5724906074        0.7606663033       -1.1073434920
 C         -5.1061293888       -0.3460322658       -3.7830406720
 C          5.4421657291        0.9287842111       -2.9101832291
 C          5.3044872610       -1.7786438933       -4.0203043781
 C          1.9094283546        0.6853909311        3.8338241059
 C         -0.6015082006       -2.0511215906        0.7478586285
 C          0.6196778334        0.9876396872        0.3801719881
 C         -0.5131196857       -2.3510337719       -2.9317556066
 C          3.8825205341        0.6459017827        2.4529635119
 C         -0.7624880825       -3.2419932202        2.8335733903
 C          2.5154780245        2.6354308460        2.5563931943
 C         -2.6830675759       -2.0613722166        1.9590742785
 C         -1.0701284936        2.6004945099       -0.2052128634
 C         -1.1432166088       -4.2866494266       -1.6442517232
 C          0.7770560154        2.1760240766       -1.7072268256
 C          1.1827931296       -3.8725771376       -2.1508138100
 C          3.2213815289       -1.3959177799        3.6932424190
 C          1.3816820269       -3.2500328693        1.5896182497
 C          0.4027149237        2.6485880304        3.8241803929
 C         -2.5214290780       -0.8381328755       -0.1928178975
 C         -1.2309986367        1.3802366472        1.9489763473
 C         -2.8797742069       -2.6571911387       -2.2785067787
 C          2.5299699544        0.5277963224       -1.1081221490
 C          1.8504978248       -1.8369662890       -3.3989401996
 C          3.0129016119        0.0014879961        3.3369251931
 C         -0.0111225840       -2.8461551674        1.7255464700
 C          1.6428577722        1.9943354742        3.4347521650
 C         -1.9319069082       -1.6540517080        0.8572022027
 C         -0.5610811936        1.6587282170        0.6881693590
 C         -1.5017156025       -3.1225850449       -2.3227294201
 C          1.2962139133        1.2418210911       -0.8090112522
 C          0.8268645662       -2.7080896643       -2.8364831718
 C          3.6238411777        1.9516754842        2.0889106548
 C         -2.0812719804       -2.8410508573        2.9295945558
 C         -0.3950618594        2.8348348842       -1.3890033852
 C          0.1918604789       -4.6442872911       -1.5788571633
 C          4.1484254744       -3.5155653256        3.3891692672
 C          3.3412863984       -4.2952619690        2.3193789147
 C         -1.7409134855        2.6374015402        4.7269572540
 C         -2.6461050516        1.8488246160        3.7235772189
 C         -4.2661363768        0.0454540113       -1.4362786912
 C         -4.5142114472       -1.0247567377       -2.5504993942
 C          4.3465273334       -0.0417928676       -2.4644645777
 C          4.0323159648       -1.0379545077       -3.6100291527
 Br         4.8073040940        2.8328938112        0.8748722631
 Br        -3.1041248446       -3.3700730761        4.4544496125
 Br        -1.1133198845        4.1019492462       -2.6253483876
 Br         0.6760262635       -6.2334179006       -0.6349714666
 N          4.0468143401       -2.1230766431        3.0733675820
 N          1.9663775209       -3.9393472802        2.4690935058
 N         -0.4355490132        2.0865218782        4.5881173053
 N         -3.7674876556       -0.6419689154       -0.2883679744
 N         -2.1539449182        2.1126202455        2.4093146222
 N         -3.2375770695       -1.5823990716       -2.8434160168
 N          3.1541877236        0.6953540263       -2.1910540427
 N          3.0724164704       -1.9765427735       -3.1131581491
 H          5.3837462744       -5.7018027264        4.5632828301
 H          6.8095553917       -5.7214697063        3.5206784661
 H          5.0409072177       -7.2840833954        2.6942132527
 H          5.3743931505       -6.0030148542        1.5253553800
 H         -3.7775638769        3.9650282009        6.0504979646
 H         -4.0638090043        2.7346304807        7.2853863426
 H         -4.5827173712        1.0655175510        5.5377531733
 H         -5.6267587145        2.4785484976        5.3544862613
 H         -5.4705179974        2.1790327358       -2.7204354086
 H         -7.0990711337        1.9122219985       -2.0911133588
 H         -6.7964882923        0.8609171686       -4.3358978123
 H         -7.1433390569       -0.3468677391       -3.0941379712
 H          7.4590355231        0.8945653616       -3.6468826567
 H          7.0990581276       -0.3672724316       -2.4650491351
 H          7.2911415718       -1.3555383247       -4.7248248792
 H          6.0555331708       -0.2485139642       -5.3315578707
 H          6.1600915971       -3.3907908762        4.1182106191
 H          6.0285060747       -3.6625436836        2.3782660253
 H          2.9302251113       -6.3305514287        1.7826558456
 H          3.0573423073       -6.0441790317        3.5198591264
 H         -2.1784364761        1.3823487078        6.4027324243
 H         -1.6307402861        3.0055489303        6.8327707144
 H         -4.1469079303        3.3644548039        3.5678604508
 H         -4.7056151715        1.7393635108        3.1598242037
 H         -6.2719719250        0.0320674481       -0.6943695074
 H         -5.3724666662        1.5099662954       -0.3393543461
 H         -4.3713849795        0.3589545668       -4.1752966146
 H         -5.2848981226       -1.1065894429       -4.5459043223
 H          5.0599970390        1.5167263771       -3.7460798602
 H          5.6570542517        1.6135646276       -2.0876201077
 H          5.6459362451       -2.3728295238       -3.1709703509
 H          5.0617698207       -2.4639939377       -4.8350183306
 H          1.2203239946        0.2071078042        4.5125056009
 H         -0.0255605906       -1.7435084402       -0.1134348351
 H          1.0177807570        0.2670434610        1.0804381933
 H         -0.8120405252       -1.4532595813       -3.4502522057
 H          4.7358036764        0.1074114709        2.0728384089
 H         -0.2965303952       -3.8559519023        3.5873408830
 H          2.3216727774        3.6484424978        2.2372987911
 H         -3.7138260263       -1.7539017031        2.0322962313
 H         -1.9814417742        3.1197010580        0.0443730838
 H         -1.8973079313       -4.8939411404       -1.1666168956
 H          1.3061962937        2.3649919123       -2.6273252261
 H          2.2246463494       -4.1414751682       -2.0816645645
 H          2.5920246825       -1.7800299924        4.5079184650
 H          1.8849233952       -2.9146533359        0.6687210826
 H          0.2154757558        3.6331936090        3.3710726802
 H         -1.8045151782       -0.4092196760       -0.9084861133
 H         -0.8694862046        0.4887789383        2.4824769458
 H         -3.5737843190       -3.2642060433       -1.6788358483
 H          2.8785136425       -0.1642445168       -0.3249128900
 H          1.4861918287       -1.0348911841       -4.0557265934
 H          3.7013613372       -3.7450475909        4.3712564587
 H          3.7324459849       -4.0143695322        1.3254892838
 H         -1.7776190584        3.7021628612        4.4378647606
 H         -2.5510651317        0.7822221790        3.9855631866
 H         -3.5227196284        0.7526065567       -1.8395970481
 H         -5.2127404290       -1.7739598049       -2.1390368432
 H          4.6790705377       -0.6247154316       -1.5873682630
 H          3.6311295116       -0.4527877237       -4.4548555615
 C         -5.0525594343        8.9035226788       -5.5114778424
 C         -4.5378306466       10.1762005084       -6.1870785644
 O         -5.4564485188        7.9533868224       -6.4833783283
 C         -4.3833971106        7.6504782497       -7.3594497020
 C         -3.8679354972        8.9223517102       -8.0360134140
 O         -3.4670901824        9.8764101041       -7.0667690443
 H         -5.9340222984        9.1133893738       -4.9053805082
 H         -5.3548244533       10.6493131058       -6.7512008425
 H         -3.5684273162        7.1780198235       -6.7924288033
 H         -4.6607256142        9.3507267176       -8.6664940211
 H         -4.1406828193       10.8753997809       -5.4510831678
 H         -4.7791441136        6.9506935462       -8.0956890760
 H         -2.9851159115        8.7125271825       -8.6400508537
 H         -4.2591630568        8.4724687278       -4.8840834363