142
-211.12694287
 C          3.2666275340       -6.6591953125        3.6689268823
 C          2.5330089509       -7.0667767570        2.3952138012
 C         -2.8329400947        4.3209799688        6.4132698886
 C         -3.8132153374        4.1449471862        5.2580739969
 C         -3.2669360391        4.8735086461       -3.1775072404
 C         -3.6745359583        4.1661719983       -4.4662193791
 C          7.0698730426       -0.2810104472       -2.9187558999
 C          6.6226563412       -0.8653555931       -4.2553128367
 C          3.6895491368       -5.1964704160        3.5943304049
 C          1.3209738091       -6.1704212120        2.1693900107
 C         -1.6732196943        3.3404058707        6.2812507103
 C         -3.1016562607        4.3395613041        3.9242594004
 C         -3.3296555927        3.9093409052       -1.9982400138
 C         -2.7859164356        2.9523451013       -4.7159508768
 C          6.0802834562        0.7723568923       -2.4347282333
 C          5.2251744075       -1.4633050901       -4.1272906400
 C          1.7733608057        0.4059440971        4.0127120130
 C         -0.5717283578       -0.9820148354        0.1286080279
 C          1.1837138136        1.9394150778        0.4815462049
 C          0.0697898710       -1.1352662321       -3.4970137243
 C          3.7758292109       -0.2472832227        2.8447323399
 C         -1.6919218318       -2.1548301688        1.9083755251
 C          3.2296396158        2.0930508624        3.0992209801
 C         -2.7204030199       -0.2138241874        0.8979661077
 C          0.1656905932        4.0884288695        0.1036694160
 C         -1.7346658647       -2.6265431026       -2.9251812821
 C          1.9324263172        3.3090158588       -1.3516655135
 C          0.5359173090       -3.4492370270       -3.0162447517
 C          2.2628482432       -1.9944577434        3.7413178895
 C          0.5312304545       -2.9374431800        1.1420416078
 C          1.1299360472        2.7918239864        4.1845029452
 C         -1.5659251919        0.9980240853       -0.9327073340
 C         -0.6113614187        2.6828363448        1.9908013018
 C         -2.2498004168       -0.2615771802       -3.3349522666
 C          2.9967383157        1.1079565698       -0.9703632366
 C          2.4188351887       -1.9324416679       -3.5250529208
 C          2.6143617215       -0.5952959430        3.5396990393
 C         -0.5959691258       -2.0211535312        1.0539192878
 C          2.0671145782        1.7502428058        3.7887514777
 C         -1.6247259620       -0.0748058646        0.0467583787
 C          0.2509225516        2.9087149761        0.8408299397
 C         -1.2877390846       -1.3529952594       -3.2831732208
 C          2.0330093313        2.1351104794       -0.6031205834
 C          0.9871543006       -2.1735750716       -3.3569844312
 C          4.0640664593        1.0873730044        2.6440087354
 C         -2.7311806095       -1.2495386393        1.8135523278
 C          0.9992923246        4.2592746548       -0.9862283935
 C         -0.8155482893       -3.6496851753       -2.8043079788
 C          2.4804122272       -4.2874274443        3.3777286703
 C          1.7353041749       -4.7014889474        2.0809020575
 C         -0.9392878624        3.5300206088        4.9558280280
 C         -1.9446351448        3.3566396347        3.7711080306
 C         -2.4263287122        2.7041129023       -2.2360646191
 C         -2.8564607474        1.9717285120       -3.5478647676
 C          4.6675415850        0.1932116215       -2.3200283536
 C          4.2312665394       -0.3838643293       -3.6924372872
 Br         5.6496302250        1.5643400245        1.6900887897
 Br        -4.2243499807       -1.4248301928        2.9930765607
 Br         0.8420659400        5.8523657712       -2.0252996768
 Br        -1.4295659969       -5.3910796601       -2.3025425119
 N          2.9186079155       -2.9350570036        3.2111952980
 N          0.5713457990       -3.8797434471        1.9799295875
 N          0.0497844727        2.5196176550        4.7851473673
 N         -2.5425917541        1.7691249102       -1.1627788348
 N         -1.2289536240        3.6245592332        2.5652755234
 N         -1.9355088544        0.8999229505       -3.7278050059
 N          3.7637852305        1.2361657207       -1.9610300664
 N          2.8520552460       -0.7499289704       -3.5868461401
 H          2.6095180961       -6.8038247495        4.5292778390
 H          4.1490001907       -7.2857130387        3.8095807758
 H          2.2065863878       -8.1054765283        2.4666165568
 H          3.2104985129       -6.9844883154        1.5421838754
 H         -2.4467588714        5.3428701468        6.4111255724
 H         -3.3414851076        4.1547303081        7.3643243378
 H         -4.2452139377        3.1423810078        5.2962432540
 H         -4.6271308247        4.8664656478        5.3449981037
 H         -2.2499071834        5.2572462915       -3.2794408289
 H         -3.9285184100        5.7209139833       -2.9912352227
 H         -3.5937463279        4.8536400873       -5.3096400302
 H         -4.7160922310        3.8444014412       -4.3917361343
 H          8.0575304536        0.1713242088       -3.0193490012
 H          7.1420715398       -1.0798239021       -2.1765926720
 H          7.3237370563       -1.6375285765       -4.5783320898
 H          6.6134647562       -0.0796491423       -5.0134298913
 H          4.1904882159       -4.8962904399        4.5169207699
 H          4.3870965983       -5.0456770018        2.7686231750
 H          0.8084050012       -6.4458513771        1.2454694947
 H          0.6118838124       -6.2782619624        2.9915336362
 H         -2.0393145512        2.3134685013        6.3279150655
 H         -0.9601409277        3.4817397396        7.0961127748
 H         -2.7048061047        5.3532976096        3.8496984718
 H         -3.7956930534        4.1872257636        3.0955586229
 H         -4.3509799991        3.5539849517       -1.8509468411
 H         -3.0121516104        4.4058417300       -1.0796427890
 H         -1.7476989134        3.2626725852       -4.8427353937
 H         -3.0963882898        2.4335433211       -5.6252905669
 H          6.0484024138        1.6108773867       -3.1312674366
 H          6.3806438155        1.1552688254       -1.4574510350
 H          5.2475008900       -2.2672325410       -3.3870064836
 H          4.9009102665       -1.8830766068       -5.0828947003
 H          0.8678585695        0.1628257566        4.5466175140
 H          0.2684266984       -0.8777892502       -0.5435330339
 H          1.2468601052        1.0267875687        1.0575908516
 H          0.4201382354       -0.1518924237       -3.7644656174
 H          4.4219279597       -1.0302686068        2.4811248606
 H         -1.7021582557       -2.9624315700        2.6225215366
 H          3.4696626354        3.1295515213        2.9159620354
 H         -3.5306762913        0.4939377532        0.8259711150
 H         -0.5556552392        4.8357701048        0.3917732521
 H         -2.7861787317       -2.7981332680       -2.7500289739
 H          2.5830343880        3.4404554284       -2.2009869179
 H          1.2328456740       -4.2667113705       -2.9050854083
 H          1.3810265262       -2.1758474650        4.3714735827
 H          1.3522015139       -2.7465157539        0.4327552476
 H          1.4017345608        3.8183388868        3.8985886037
 H         -0.6089545296        1.0933051529       -1.4638979541
 H         -0.6804701063        1.6379277566        2.3290455782
 H         -3.2613937040       -0.5117788548       -2.9838461598
 H          3.0002772058        0.2106089855       -0.3287279161
 H          3.0458581073       -2.8313449292       -3.5691137847
 H          1.7657593349       -4.3845455267        4.2127240621
 H          2.4239163671       -4.5422202824        1.2317915900
 H         -0.5149319457        4.5461420186        4.8812826379
 H         -2.3049471027        2.3156423571        3.8117123037
 H         -1.3804572682        3.0204006580       -2.3815852824
 H         -3.8895555221        1.6097663914       -3.3996911331
 H          4.6524540506       -0.6325355640       -1.5815795756
 H          4.2482063158        0.4485788637       -4.4066780950
 C         -5.6364432737       -2.8111467566       -4.0981182427
 C         -6.9240792045       -1.9984165084       -4.2389944305
 O         -5.0363757824       -2.5758268914       -2.8330690973
 C         -5.9425660188       -2.8918568816       -1.7867238328
 C         -7.2272613934       -2.0756474204       -1.9286380075
 O         -7.8267527008       -2.3071677065       -3.1917643150
 H         -4.9027372368       -2.5125154495       -4.8476315456
 H         -6.6863389351       -0.9246596283       -4.2160540273
 H         -6.1783897631       -3.9646050581       -1.8206306395
 H         -6.9969834276       -1.0055968002       -1.8199622944
 H         -7.4375423100       -2.2437998108       -5.1685506353
 H         -5.4310159244       -2.6548632854       -0.8542882703
 H         -7.9614804774       -2.3745101433       -1.1808065703
 H         -5.8615051310       -3.8820131409       -4.2002778368