142
-211.13041676
 C          3.2377973485       -6.4737946505        3.5550600985
 C          2.1735323283       -6.9176652571        2.5567453762
 C         -2.4959541192        4.6647812123        6.4798978125
 C         -3.6450733696        4.2455818615        5.5686701982
 C         -5.8264095332        4.0949961192       -1.9760012787
 C         -6.4565880980        3.1965918106       -3.0353824703
 C          5.8136143135       -1.3319890021       -3.6670028383
 C          5.1195078019       -2.1489333379       -4.7516739810
 C          3.6343487036       -5.0247120431        3.2973061887
 C          0.9540247619       -6.0078435560        2.6406719368
 C         -1.3016077598        3.7361460139        6.2926218214
 C         -3.1955765590        4.2431601496        4.1119263617
 C         -5.4290385551        3.2770069472       -0.7524144003
 C         -5.4942158541        2.0819556049       -3.4295174146
 C          4.8967768386       -0.2139822091       -3.1868147557
 C          3.8152876244       -2.7286887327       -4.2183338925
 C          1.8439948729        0.6248537742        3.8111352787
 C         -1.6279613329       -1.0572274628        0.9293287552
 C          0.5570978408        1.3907982499        0.3920865519
 C         -1.7909092436       -1.3320938986       -2.7945906670
 C          3.5999881989       -0.1221156219        2.3419060950
 C         -2.0921124822       -2.1059407819        3.0460234931
 C          3.0341220711        2.2244734194        2.4600811298
 C         -3.5204532257       -0.3334811426        2.2317328103
 C         -0.5409061138        3.4719159781       -0.1238910725
 C         -2.9524007495       -2.9577021267       -1.4489145534
 C          0.9586822363        2.4589545770       -1.7269125209
 C         -0.6542342143       -3.3356317933       -2.0928985191
 C          2.3232087975       -1.7863510112        3.6656706635
 C         -0.1539191520       -2.8756789282        1.7081887394
 C          1.1304279062        2.9927556463        3.8263506858
 C         -3.0533781672        0.7433549229        0.0481130190
 C         -0.9521704928        2.3798019097        2.0634573846
 C         -4.0841816781       -0.8406273168       -2.0065658129
 C          2.1140068995        0.3310095085       -1.2022993632
 C          0.5782145284       -1.6324920812       -3.4066015700
 C          2.6059666318       -0.4097820453        3.2811416393
 C         -1.3059219547       -2.0043575059        1.8967891555
 C          2.0376329691        1.9405512616        3.3928404053
 C         -2.7301439702       -0.2208150312        1.0885027355
 C         -0.3117751694        2.4160743526        0.7576627493
 C         -2.9424525139       -1.7357710589       -2.1202292024
 C          1.2014044488        1.4074871059       -0.8413097368
 C         -0.6423234860       -2.1145259597       -2.7725176557
 C          3.8024287543        1.1883029773        1.9590009818
 C         -3.1807828809       -1.2680165808        3.1924218283
 C          0.0915034916        3.4672930582       -1.3532986561
 C         -1.8101170871       -3.7385582247       -1.4556652270
 C          2.4212150160       -4.0999103873        3.3865499324
 C          1.3360806253       -4.5503478430        2.3746580563
 C         -0.8283721050        3.7354592751        4.8412020949
 C         -2.0087153050        3.3069303938        3.9082561334
 C         -4.4547365009        2.1661769074       -1.1311956747
 C         -5.0993906376        1.2426167987       -2.2170515231
 C          3.5794604133       -0.7750254929       -2.6491571762
 C          2.8836760796       -1.6094731209       -3.7559568479
 Br         5.1584795657        1.5848722066        0.6728348005
 Br        -4.2453863421       -1.3954998608        4.7739593525
 Br        -0.2535859311        4.8937954641       -2.5763079050
 Br        -1.8280109407       -5.4062507052       -0.5233587428
 N          2.8082097270       -2.7671789785        3.0355563348
 N          0.1876077262       -3.7256741071        2.5750587640
 N          0.1928403091        2.7634831487        4.6450436034
 N         -4.1624317804        1.3501302215        0.0034188501
 N         -1.5373173152        3.3839933457        2.5625948428
 N         -4.0958773449        0.2950358781       -2.5653687768
 N          2.7145086593        0.3093986882       -2.3112185753
 N          1.6970570273       -2.1756276477       -3.1884620857
 H          2.8466468439       -6.5686093126        4.5704982238
 H          4.1191078516       -7.1120395584        3.4723437350
 H          1.8711957769       -7.9456468885        2.7623606184
 H          2.5839012251       -6.8830261301        1.5452164657
 H         -2.1995323640        5.6896852502        6.2450988555
 H         -2.8164884341        4.6368853835        7.5225351679
 H         -3.9827494714        3.2443802055        5.8457642677
 H         -4.4860912553        4.9303034395        5.6886289359
 H         -4.9403915655        4.5807892465       -2.3909543228
 H         -6.5305820534        4.8740096484       -1.6796636928
 H         -6.7126028551        3.7834809928       -3.9189258489
 H         -7.3772370877        2.7594295629       -2.6420415113
 H          6.7375180239       -0.8993587380       -4.0543106290
 H          6.0719521511       -1.9801219534       -2.8264554745
 H          5.7700330541       -2.9571122192       -5.0905311054
 H          4.8970150945       -1.5034068621       -5.6033919947
 H          4.3775656936       -4.6963596212        4.0268202635
 H          4.0715162698       -4.9240826292        2.3024821960
 H          0.2005989250       -6.3088568291        1.9102832749
 H          0.5041985713       -6.0683511337        3.6328826534
 H         -1.5695307168        2.7148608954        6.5682411725
 H         -0.4711129517        4.0503602158        6.9281815367
 H         -2.9010866973        5.2474159804        3.8029544551
 H         -4.0096698793        3.9151356124        3.4631266632
 H         -6.3100603978        2.8235097659       -0.2954050570
 H         -4.9523857563        3.9153635018       -0.0063788345
 H         -4.5875047960        2.5021984309       -3.8677208760
 H         -5.9544413733        1.4254118076       -4.1708389595
 H          4.6640237402        0.4567897043       -4.0143513783
 H          5.3780719293        0.3678267668       -2.3982140363
 H          4.0099247524       -3.3938620806       -3.3749332237
 H          3.3075611387       -3.3058865930       -4.9935604749
 H          1.0667456707        0.4271584805        4.5329336413
 H         -1.0235679489       -0.9737821485        0.0371554329
 H          0.7393586143        0.5792024198        1.0822354940
 H         -1.8045619433       -0.3827521763       -3.3071138679
 H          4.1856303857       -0.9310866945        1.9354200928
 H         -1.8330612063       -2.8404631505        3.7914014952
 H          3.1961164241        3.2381759985        2.1258101886
 H         -4.3745595899        0.3149116570        2.3431750412
 H         -1.2113704396        4.2631828748        0.1705208936
 H         -3.8363710482       -3.2838557608       -0.9218392959
 H          1.4569189753        2.4600557063       -2.6825443247
 H          0.2418478638       -3.9352250146       -2.0802287814
 H          1.6366215329       -1.9121813176        4.5143624736
 H          0.3914844226       -2.7440528098        0.7601934658
 H          1.2759120378        3.9780824943        3.3598294669
 H         -2.2672849960        0.9009814597       -0.7048348939
 H         -0.8830572388        1.4178408756        2.5923299999
 H         -4.9066689909       -1.1875854990       -1.3639858650
 H          2.2466130473       -0.4543678283       -0.4410714990
 H          0.4671384823       -0.7528609335       -4.0553638552
 H          1.9707635036       -4.1423197395        4.3927424748
 H          1.7509254916       -4.4377218786        1.3575028547
 H         -0.5101576189        4.7453887720        4.5291407938
 H         -2.2714328929        2.2733714236        4.1875713053
 H         -3.5373449661        2.5836265740       -1.5776254319
 H         -5.9848027692        0.7657802378       -1.7617574114
 H          3.7615199872       -1.4382253632       -1.7847864326
 H          2.6582666237       -0.9281432831       -4.5919508893
 C          2.9612393505       -0.1226000099       -8.0383204273
 C          4.0448647754        0.4526581844       -8.9519338062
 O          3.1610043937        0.3009420914       -6.6999952410
 C          3.1802964879        1.7174464452       -6.6218110402
 C          4.2633708127        2.2913871078       -7.5360903898
 O          4.0620609372        1.8677065668       -8.8740884181
 H          3.0004711772       -1.2120215036       -8.0250900213
 H          5.0268629028        0.0560979381       -8.6558156938
 H          2.1990235198        2.1145425987       -6.9187967616
 H          5.2529731564        1.9590365808       -7.1903843673
 H          3.8447701853        0.2060857606       -9.9946797154
 H          3.3810643395        1.9649068591       -5.5795665337
 H          4.2220483357        3.3804799466       -7.5505977108
 H          1.9728406374        0.2118236938       -8.3850176841