142
-211.12675277
 C          0.9049420007       -6.4134527128        3.4121088515
 C         -0.2514524362       -6.4189849395        2.4175291405
 C         -0.5401881226        6.0241400274        6.5646175588
 C         -1.7466640001        6.0597306123        5.6319202414
 C         -3.8229999329        6.7509585001       -1.9199254962
 C         -4.7502466872        6.1351401813       -2.9628371618
 C          4.9817081351       -2.7364326225       -3.4719595958
 C          4.0505441578       -3.2206394028       -4.5786659893
 C          1.7873301989       -5.1898545730        3.1931539037
 C         -1.0693804271       -5.1396995176        2.5465051798
 C          0.2372638616        4.7254709883        6.3820446355
 C         -1.3036491927        5.9026487456        4.1815742551
 C         -3.7271107883        5.8503752478       -0.6934602201
 C         -4.2595610586        4.7471667121       -3.3588833776
 C          4.5718984721       -1.3451475659       -3.0044852756
 C          2.6060034711       -3.2246014780       -4.0920943452
 C          2.1110809834        0.7125109869        3.8756011549
 C         -1.7332458596        0.4310218175        0.9508488959
 C          1.1791821280        1.8552831127        0.5057788195
 C         -2.0515324440        0.2032638667       -2.7016526154
 C          3.4982093055       -0.5773745484        2.3876517880
 C         -2.5089851906       -0.3960653500        3.0741086241
 C          3.7943527418        1.8147649856        2.5514158943
 C         -3.2102012956        1.7815577867        2.2900658001
 C          0.9872597464        4.1985558169       -0.0155794338
 C         -3.7498902477       -0.8663768138       -1.3696433949
 C          2.0128094265        2.6819750913       -1.5955744817
 C         -1.7613451664       -2.0834317721       -2.0023805773
 C          1.7090994084       -1.7106864819        3.6751332555
 C         -1.0006345035       -1.8009244545        1.6952866069
 C          2.2779247368        3.1813644127        3.9303062861
 C         -2.4183695397        2.6311914930        0.0973987983
 C          0.1348663961        3.3485610633        2.1539803619
 C         -3.9995210982        1.5198808961       -1.9254938213
 C          2.2241938709        0.2692457015       -1.0650165100
 C          0.0348357965       -0.9699702283       -3.2953480854
 C          2.4619883704       -0.5138395327        3.3230916565
 C         -1.7596196474       -0.5766747676        1.9101750637
 C          2.7577307780        1.8830054165        3.4813718203
 C         -2.4525670659        1.6094986028        1.1322971859
 C          0.7669936945        3.1370855750        0.8613349289
 C         -3.2754643432        0.2625224402       -2.0364251251
 C          1.8037079684        1.6190166460       -0.7150246857
 C         -1.2837380498       -0.9553219429       -2.6748811891
 C          4.1510497604        0.5842837667        2.0288386140
 C         -3.2164265500        0.7788924192        3.2423177075
 C          1.5999518365        3.9488878806       -1.2298428230
 C         -2.9880163689       -2.0212490081       -1.3734036007
 C          0.9795059941       -3.8995043296        3.3260487513
 C         -0.1954518889       -3.9054447933        2.3146048023
 C          0.7030525001        4.5642936666        4.9373690036
 C         -0.5377269658        4.5985426383        3.9846959007
 C         -3.2268889532        4.4606384054       -1.0739770946
 C         -4.1779610861        3.8280946425       -2.1428763678
 C          3.1267111565       -1.3384892651       -2.5020193954
 C          2.1791412219       -1.8334665666       -3.6248252893
 Br         5.5633360700        0.5013853117        0.7446200961
 Br        -4.2266144670        1.0334502971        4.8440706800
 Br         1.8732066336        5.4005615343       -2.4420308206
 Br        -3.6411973696       -3.5605375984       -0.4494478262
 N          1.8124575221       -2.7789899364        3.0099746951
 N         -0.9739038644       -2.7308473306        2.5468077104
 N          1.3107271723        3.2921159518        4.7394346334
 N         -3.2344335251        3.5969424669        0.0633865672
 N         -0.0502669632        4.4991243512        2.6462083833
 N         -3.5944044917        2.5769669131       -2.4915781116
 N          2.7523953714        0.0011180181       -2.1783432692
 N          0.8594327109       -1.9003502012       -3.0746033542
 H          0.5093390006       -6.3988754553        4.4301069810
 H          1.5036053678       -7.3184724303        3.2960186066
 H         -0.8973530682       -7.2797142831        2.5974971275
 H          0.1407394214       -6.4987051057        1.4012878009
 H          0.1134841190        6.8721342522        6.3476201459
 H         -0.8675505178        6.1076287443        7.6021434815
 H         -2.4314868937        5.2493095645        5.8916778166
 H         -2.2814752489        7.0035943993        5.7487758222
 H         -2.8281090758        6.8838500700       -2.3508642377
 H         -4.1952098970        7.7324327390       -1.6220308661
 H         -4.7916432742        6.7713456785       -3.8483596993
 H         -5.7603874378        6.0600087617       -2.5536606111
 H          6.0108620145       -2.7069994181       -3.8330802593
 H          4.9399317903       -3.4302431091       -2.6294562262
 H          4.3308576183       -4.2278871474       -4.8913509562
 H          4.1407519741       -2.5612574370       -5.4447522272
 H          2.5999503665       -5.1695175496        3.9222425823
 H          2.2302640038       -5.2172687936        2.1961114839
 H         -1.8846056952       -5.1315715441        1.8206035360
 H         -1.5064850913       -5.0683988278        3.5436331882
 H         -0.3887126778        3.8698762708        6.6405550407
 H          1.1138045374        4.7113983162        7.0330764038
 H         -0.6574703991        6.7317899888        3.8888613752
 H         -2.1697321988        5.8987645072        3.5173670164
 H         -4.7043667689        5.7485382261       -0.2187989804
 H         -3.0386164305        6.2767164501        0.0383996676
 H         -3.2686264772        4.8104879348       -3.8113440169
 H         -4.9358939029        4.2976661650       -4.0888974407
 H          4.6528059165       -0.6309275374       -3.8253240205
 H          5.2231828132       -1.0046898469       -2.1972607986
 H          2.4910686756       -3.9179795344       -3.2572097911
 H          1.9348602170       -3.5458409712       -4.8912516381
 H          1.3105102957        0.7878058459        4.5950815819
 H         -1.1558778293        0.2961873384        0.0472476477
 H          1.0183255022        1.0368896945        1.1931536589
 H         -1.7016804700        1.0884597762       -3.2098825977
 H          3.7631186596       -1.5330022895        1.9644337538
 H         -2.5213781998       -1.1802145261        3.8138322771
 H          4.3037434198        2.7127048768        2.2354845987
 H         -3.7686820997        2.6945811773        2.4195982592
 H          0.6694993760        5.1883677351        0.2702943425
 H         -4.6951380707       -0.8352111012       -0.8489527546
 H          2.4964151563        2.4898718292       -2.5397609631
 H         -1.1589847702       -2.9775733609       -1.9884022339
 H          1.0248358584       -1.6108831124        4.5289730539
 H         -0.4559613712       -1.8583414590        0.7392428719
 H          2.7688341300        4.0567597954        3.4802593541
 H         -1.6368167090        2.4971761028       -0.6650333291
 H         -0.1637292947        2.4311601906        2.6823903432
 H         -4.8877057137        1.5062909180       -1.2766869739
 H          2.0492118745       -0.4967738726       -0.2927267394
 H          0.2724981471       -0.1090255250       -3.9352944413
 H          0.5444131316       -3.8125272698        4.3360363985
 H          0.2314528410       -3.9198489152        1.2960700993
 H          1.3681690251        5.3946165773        4.6426501467
 H         -1.1639020703        3.7317437779        4.2527450994
 H         -2.2271597416        4.5160301222       -1.5352920688
 H         -5.1696606286        3.7087660649       -1.6726414275
 H          3.0144344443       -2.0165897178       -1.6374833302
 H          2.2405123235       -1.1065744112       -4.4523425330
 C          2.5827797059      -10.9717906485       -7.6848254429
 C          2.4503695173      -11.9225959363       -8.8761419968
 O          2.2130509504       -9.6539220423       -8.0551091742
 C          0.8910002703       -9.6311614376       -8.5668515145
 C          0.7587222476      -10.5820005792       -9.7581824928
 O          1.1280909835      -11.8996688163       -9.3875332854
 H          3.6169362023      -10.9141763096       -7.3449956151
 H          3.1548267883      -11.6234715711       -9.6657570843
 H          0.1862270219       -9.9304355177       -7.7775584191
 H          1.4046187874      -10.2363160336      -10.5783038333
 H          2.6434445467      -12.9527100062       -8.5764199398
 H          0.6977575567       -8.6010765908       -8.8666997190
 H         -0.2753336218      -10.6394216580      -10.0983989353
 H          1.9370239349      -11.3177243164       -6.8647534772