142
-211.12667690
 C          4.8211413930       -6.1958257659        3.2033360671
 C          4.1952296583       -6.6038479016        1.8736327000
 C         -3.5539874771        3.3326925112        5.5800808697
 C         -4.2912391220        2.9238292145        4.3088103723
 C         -4.1226192808        3.7363735198       -3.5493724142
 C         -4.2559037827        2.9412890881       -4.8443165462
 C          8.2644677213        0.1487088703       -2.0303646523
 C          8.0846108635       -0.5406614076       -3.3790054520
 C          4.9792528071       -4.6813150501        3.2719861508
 C          2.8475161921       -5.9172788305        1.6877518978
 C         -2.2101997761        2.6183478066        5.6707344048
 C         -3.4420180899        3.2263979603        3.0792892616
 C         -3.9481670961        2.7961254900       -2.3619489741
 C         -3.0390270318        2.0457515932       -5.0477229578
 C          7.0756387576        1.0548134027       -1.7339476290
 C          6.7862206529       -1.3390176012       -3.3971897901
 C          2.0546444707        0.4535934262        3.9349837924
 C         -0.0540999848       -1.1839714773       -0.1143414693
 C          1.6784957754        1.5358981110        0.4364337276
 C          0.8613886485       -0.9167915742       -3.6706041455
 C          4.2660167587        0.2446954865        3.0035180911
 C         -0.8897388341       -2.6324140955        1.6171780789
 C          3.2504370496        2.4245257870        3.2369570645
 C         -2.3363272381       -0.9686880756        0.6241110889
 C          0.4567563441        3.5284046398       -0.1446208888
 C         -0.3507811775       -2.8762965803       -2.9687587478
 C          2.5146239449        2.9868923439       -1.2928048502
 C          2.0639477151       -2.8522472026       -2.8900302498
 C          3.0110389225       -1.7975390591        3.6346389587
 C          1.4571197030       -2.8730784687        0.8565255576
 C          0.9270709315        2.6544717020        4.0245991057
 C         -1.4811969167        0.5179830164       -1.1676782597
 C         -0.4025039664        2.0409577732        1.6441910561
 C         -1.6112628680       -0.8546645812       -3.5980388819
 C          3.7892458446        0.9471965086       -0.6947981066
 C          3.3188427832       -0.8104948611       -3.5231218892
 C          3.1199456218       -0.3476047687        3.5407032654
 C          0.1545754172       -2.2251930096        0.7850019968
 C          2.1034377688        1.8369671018        3.7690263156
 C         -1.2919102678       -0.5516475856       -0.2001980860
 C          0.5820638391        2.3733242264        0.6262840524
 C         -0.3515426618       -1.5681377254       -3.4510955150
 C          2.6492804583        1.8357870241       -0.5144408063
 C          2.0675066884       -1.5426186782       -3.3775750179
 C          4.3137911298        1.6176512152        2.8726828349
 C         -2.1124316989       -1.9958972193        1.5222626937
 C          1.4216622072        3.8085623086       -1.0945347227
 C          0.8576825809       -3.4968713030       -2.7061012463
 C          3.6328065181       -3.9807004471        3.0944785051
 C          2.9941441805       -4.3952835289        1.7439836800
 C         -1.3420426502        2.9280336062        4.4539781363
 C         -2.1004238850        2.5045188046        3.1526930132
 C         -2.7256447545        1.9032784509       -2.5482279686
 C         -2.8641865227        1.0849924253       -3.8745173401
 C          5.7668329891        0.2622191680       -1.7379791242
 C          5.5849093915       -0.4396908333       -3.1082896374
 Br         5.8774138082        2.4296242091        2.1336978940
 Br        -3.5361581951       -2.5433303004        2.6732908971
 Br         1.2301437171        5.3754376741       -2.1712760656
 Br         0.8497125397       -5.2856015012       -2.0347888305
 N          3.8328583683       -2.5637817113        3.0586150786
 N          1.6979673002       -3.7995002853        1.6776310096
 N         -0.1458101442        2.1564066996        4.4751882805
 N         -2.6236621386        0.9634725008       -1.4780324252
 N         -1.2761701339        2.8640147303        2.0434359488
 N         -1.6551838760        0.3440940527       -4.0020426729
 N          4.6746593176        1.1660803622       -1.5658022679
 N          4.3992316805       -1.2376441259       -3.0286197373
 H          4.1839323014       -6.5323739853        4.0241650451
 H          5.7978029614       -6.6687757484        3.3189931526
 H          4.0564424207       -7.6855388527        1.8401954044
 H          4.8617638556       -6.3241880470        1.0548449473
 H         -3.3912746619        4.4129558422        5.5758093215
 H         -4.1554196720        3.0858217936        6.4564162926
 H         -4.5108887497        1.8543600026        4.3434375346
 H         -5.2386605900        3.4603458386        4.2374400884
 H         -3.2572677957        4.3995559809       -3.6169584619
 H         -5.0094051429        4.3535980370       -3.3970390619
 H         -4.3511726855        3.6214134003       -5.6922562416
 H         -5.1571243647        2.3252488121       -4.8027194903
 H          9.1793682355        0.7431799800       -2.0317122546
 H          8.3529084763       -0.6040512588       -1.2439695199
 H          8.9249390204       -1.2092095591       -3.5734766336
 H          8.0606365931        0.2105168333       -4.1716070158
 H          5.4027989313       -4.3844180300        4.2336721987
 H          5.6532722802       -4.3359499109        2.4862192126
 H          2.4081429945       -6.1900307643        0.7263920692
 H          2.1548823922       -6.2240990057        2.4729736921
 H         -2.3581633135        1.5385222939        5.7236266751
 H         -1.6729415642        2.9298020426        6.5689240089
 H         -3.2547059608        4.2985133339        3.0005100494
 H         -3.9579479919        2.9060500192        2.1723392910
 H         -4.8274284686        2.1600933441       -2.2477064006
 H         -3.8220734684        3.3668278029       -1.4401026617
 H         -2.1348350172        2.6500413987       -5.1371121163
 H         -3.1454915899        1.4600859785       -5.9631709041
 H          7.0022716026        1.8413195601       -2.4866003404
 H          7.1914262595        1.5321079314       -0.7590448456
 H          6.8163215786       -2.1263243847       -2.6420414074
 H          6.6418858536       -1.8115982362       -4.3709577355
 H          1.1569378666        0.0191303276        4.3468051206
 H          0.7498290690       -0.8661314046       -0.7630196730
 H          1.7788104264        0.6476652878        1.0439565894
 H          0.8382743053        0.0958418290       -4.0424483024
 H          5.0873933964       -0.3847963912        2.7008322747
 H         -0.7186815396       -3.4383040363        2.3125138155
 H          3.3026700248        3.4943325743        3.1013705420
 H         -3.2927053005       -0.4771184574        0.5463343244
 H         -0.3925692841        4.1733889773        0.0135041602
 H         -1.2820380054       -3.3932692793       -2.7924606529
 H          3.2703719442        3.2101872079       -2.0284728437
 H          3.0043543983       -3.3296477487       -2.6658321367
 H          2.1527168615       -2.1759217423        4.2068651237
 H          2.2117646707       -2.5005957477        0.1454915812
 H          1.0106109651        3.7162697325        3.7499036626
 H         -0.5574159015        0.9065034944       -1.6213075397
 H         -0.3263515325        1.0225909126        2.0530328360
 H         -2.5127443084       -1.4011875478       -3.2842621495
 H          3.8245946296        0.0776043350       -0.0192826486
 H          3.2522795140        0.1477540813       -4.0566927677
 H          2.9314868465       -4.2736507477        3.8941104839
 H          3.6522068157       -4.0392589199        0.9316296186
 H         -1.1388969799        4.0106187213        4.3801669359
 H         -2.2448985979        1.4133517006        3.2138116936
 H         -1.8090966155        2.5080226632       -2.6459135264
 H         -3.7459469178        0.4295159821       -3.7672672940
 H          5.7831469475       -0.5165909138       -0.9551197701
 H          5.4948323519        0.3498159726       -3.8735942432
 C        -14.4993299890        1.1764723466       -0.9807349942
 C        -15.8970208355        0.5768770140       -1.1474039886
 O        -13.5084104814        0.2595384478       -1.4139942606
 C        -13.7318883607       -0.1177481608       -2.7622273732
 C        -15.1295752920       -0.7174587146       -2.9285577775
 O        -16.1200843240        0.2001202709       -2.4960295067
 H        -14.2859636329        1.3827299441        0.0681559074
 H        -15.9989966115       -0.3046374541       -0.4980340126
 H        -13.6302901684        0.7635640401       -3.4120500426
 H        -15.2047343285       -1.6436001739       -2.3405137053
 H        -16.6670677117        1.3090351012       -0.9040406933
 H        -12.9618897839       -0.8500178217       -3.0055195596
 H        -15.3429177451       -0.9246272890       -3.9773026539
 H        -14.4243084301        2.1030413192       -1.5681564258