142
-211.12683030
 C          8.5301480213        1.0670118356       -0.2831499730
 C          8.6946155296        0.9311652108       -1.7933959305
 C         -5.3754288354        1.3416715521        3.3145774630
 C         -5.0141682196        1.2116791907        4.7906873315
 C         -3.2374650778        4.8391384429       -4.5795097564
 C         -3.4610477288        5.0542042223       -3.0861841727
 C          4.2121268163       -7.0276440830        1.3225955046
 C          3.9310348663       -6.9080523609       -0.1717476459
 C          7.2377147397        1.8040258243        0.0464497660
 C          7.4971133413        0.2034897305       -2.3932937644
 C         -4.2754801575        2.0811650160        2.5614813471
 C         -3.6816495404        0.4888038043        4.9513350298
 C         -1.9490334040        4.0600659872       -4.8178528406
 C         -3.5073234906        3.7161040056       -2.3572714668
 C          4.2728125117       -5.6455456549        1.9626038381
 C          2.6290339312       -6.1525411447       -0.4086209310
 C          1.4573187666        1.4695127177        0.8842173056
 C          1.7463073895        0.7376572304       -3.8176239410
 C          0.9993579860       -0.9910761526        3.6970533398
 C         -0.0188045931       -0.9675347095       -0.9617939981
 C          2.5558513124        3.4708855347        0.1207088550
 C          2.9014806996       -1.3591101511       -3.5548251876
 C          0.2487890875        3.5523903565        0.8392197472
 C          0.5723123243       -1.3305365808       -4.1988753497
 C          2.2125756936        1.0545972583        4.0765014155
 C         -2.4211941912       -0.9700075387       -0.7910363206
 C          3.3770474886       -0.9238381420        3.3207550073
 C         -1.1584497805       -2.9412094313       -0.1865119153
 C          3.8162480138        1.3381021796        0.1757683582
 C          4.0981801757        0.7620654173       -3.0859110230
 C         -0.8866783046        1.4947596447        1.6294730259
 C         -0.6775900691        0.7920577386       -4.3077944288
 C         -0.2432162025        1.0597231759        4.3022315279
 C         -1.2527594561        1.0644907668       -1.5931058921
 C          2.1235581567       -3.0126130597        2.8521914178
 C          1.3125785726       -2.9587739323       -0.3741410947
 C          2.5971116916        2.1033352079        0.3985622062
 C          2.9064411157        0.0376117552       -3.5077734467
 C          0.2824797944        2.1840481819        1.1055769958
 C          0.5713963452        0.0626493181       -4.1454569623
 C          1.0070357539        0.3544132435        4.0617456790
 C         -1.2358613835       -0.3053280157       -1.1032591672
 C          2.1717001099       -1.6309487846        3.3122520189
 C          0.0294038630       -2.2833212168       -0.5111274785
 C          1.3837381808        4.1674852204        0.3439648689
 C          1.7400119219       -2.0146767380       -3.9099174580
 C          3.3761327344        0.3994486784        3.7130932438
 C         -2.3586737542       -2.2721398985       -0.3302836249
 C          6.0256409572        1.0800301665       -0.5428475508
 C          6.1945500517        0.9375451779       -2.0778250296
 C         -2.9384356179        1.3605852971        2.7013731506
 C         -2.5640254092        1.2226861456        4.2145211156
 C         -1.9832501605        2.7092057841       -4.1075555677
 C         -2.2192189641        2.9291737918       -2.5765101424
 C          2.9692360536       -4.8800239659        1.7397519320
 C          2.6794719653       -4.7591822676        0.2211256883
 Br         1.3229179146        6.0358550393       -0.0523901934
 Br         1.7289026320       -3.9248430495       -3.9709285699
 Br         5.0223575880        1.3703633103        3.7213134765
 Br        -3.9829781966       -3.1668694315        0.1303244333
 N          4.8556585431        1.8642509635       -0.3073318255
 N          5.0858168543        0.1735234063       -2.5637996847
 N         -1.8987011103        2.1105230204        2.0733708064
 N         -0.7244624046        2.0533740707       -4.2129090697
 N         -1.3593692945        0.4653533279        4.2453676480
 N         -2.3139705439        1.6387909679       -1.9728598843
 N          3.0991938427       -3.5526240561        2.2598310961
 N          1.4037523157       -4.1350358813        0.0716130335
 H          8.5092319556        0.0748966639        0.1730224401
 H          9.3748380711        1.6137746782        0.1387801570
 H          9.6076705965        0.3793415203       -2.0230611866
 H          8.7786345420        1.9238170264       -2.2413739985
 H         -5.5053285327        0.3468093706        2.8826131398
 H         -6.3171478708        1.8819870221        3.2062996320
 H         -4.9445655876        2.2058808421        5.2380137856
 H         -5.7923117316        0.6580946130        5.3185349873
 H         -4.0803277273        4.2845289326       -4.9982907318
 H         -3.1790025397        5.8010925023       -5.0911973244
 H         -4.3968459567        5.5905910703       -2.9215596395
 H         -2.6483701802        5.6607300849       -2.6801230878
 H          5.1587110734       -7.5455665886        1.4858211664
 H          3.4210673239       -7.6132642714        1.7962828945
 H          3.8593268238       -7.8998579698       -0.6207788406
 H          4.7528220366       -6.3770755136       -0.6570953703
 H          7.1052185707        1.8801240089        1.1274189079
 H          7.2642231285        2.8155379182       -0.3617334950
 H          7.6003617834        0.1268640239       -3.4776525191
 H          7.4287729922       -0.8079509606       -1.9892434217
 H         -4.1644096217        3.0951178378        2.9490930170
 H         -4.5211458244        2.1497519946        1.5003372788
 H         -3.7503171736       -0.5242109003        4.5514758441
 H         -3.4119938534        0.4172497575        6.0070478528
 H         -1.0919372632        4.6234649870       -4.4453682508
 H         -1.8005724837        3.8865200964       -5.8856633880
 H         -4.3448554609        3.1159860480       -2.7165517056
 H         -3.6381365423        3.8718380868       -1.2849812284
 H          5.0906841609       -5.0655125045        1.5317949178
 H          4.4486259101       -5.7294165705        3.0370429801
 H          1.7907050921       -6.6963751970        0.0295027496
 H          2.4384323941       -6.0438254890       -1.4780450560
 H          1.4826788250        0.4110785925        1.1018184530
 H          1.7230213001        1.8157544833       -3.7808814633
 H          0.0553319119       -1.5135315428        3.6915203527
 H          0.8970703673       -0.4523949599       -1.2148555136
 H          3.4425950092        3.9526384528       -0.2584965684
 H          3.8054721545       -1.8939863209       -3.3111967534
 H         -0.6634924858        4.0979356802        1.0193100191
 H         -0.3296488202       -1.8677085523       -4.4508432347
 H          2.2349597310        2.0970830098        4.3563277018
 H         -3.3587114271       -0.4511856276       -0.9098579971
 H          4.2814064489       -1.4272976359        3.0185908844
 H         -1.1110103436       -3.9590317570        0.1656219810
 H          3.7681418665        0.2745344362        0.4585234382
 H          4.0665879750        1.8517954693       -3.2236549246
 H         -0.8264256805        0.3965759343        1.6193236907
 H         -1.5782224824        0.1797578692       -4.4611456662
 H         -0.1611355605        2.1419519954        4.4798569312
 H         -0.2737416720        1.5650805883       -1.6180840962
 H          1.1747666412       -3.5391031120        3.0257607639
 H          2.1926124790       -2.3749231190       -0.6874296189
 H          5.9339688279        0.0660931432       -0.1151294610
 H          6.2065241833        1.9552948076       -2.5033838514
 H         -3.0003597651        0.3364161907        2.2978684339
 H         -2.4286949187        2.2421055351        4.6155703244
 H         -2.8131463044        2.0859472600       -4.4835545665
 H         -1.3476477866        3.4901266926       -2.2008306156
 H          2.1189171977       -5.4151930144        2.1954396690
 H          3.4869847344       -4.1578189359       -0.2323944569
 C        -14.6805853834       -0.5665409715        1.4611970213
 C        -14.8356568734       -1.4466537966        0.2192035136
 O        -13.3970575564       -0.7392487919        2.0378610632
 C        -12.3810139399       -0.4507820034        1.0917931807
 C        -12.5363368595       -1.3312853049       -0.1497482660
 O        -13.8199644416       -1.1571100649       -0.7266154192
 H        -15.4007028911       -0.8469680885        2.2300265287
 H        -14.7766495519       -2.5057222290        0.5092036999
 H        -12.4399530563        0.6081902471        0.8012894308
 H        -12.3982215477       -2.3862368847        0.1278383970
 H        -15.7838403388       -1.2506470846       -0.2816451117
 H        -11.4330041790       -0.6471795305        1.5926367548
 H        -11.8158011260       -1.0520942279       -0.9185425403
 H        -14.8199009026        0.4884540856        1.1838341801