142
-211.12945958
 C          4.3817678356       -6.4193780631        3.0465155683
 C          3.8814376931       -6.8098156030        1.6596324570
 C         -4.6247261099        2.6658167427        4.8775331650
 C         -5.2008150480        2.3045607889        3.5123053533
 C         -4.4811163000        3.4711789465       -3.8559612146
 C         -4.4620434110        2.7690228784       -5.2100063836
 C          7.9983371596        0.2479835357       -1.7982284907
 C          7.9165084565       -0.3944868484       -3.1791400816
 C          4.4541255774       -4.9023490722        3.1757628790
 C          2.5165124343       -6.1868340778        1.3932863367
 C         -3.2715038767        1.9936893674        5.0839456083
 C         -4.2299764139        2.6997204621        2.4057118302
 C         -4.3609770824        2.4544137123       -2.7263439059
 C         -3.1882396827        1.9460136500       -5.3662284575
 C          6.7711711800        1.1144048422       -1.5420841682
 C          6.6431596699       -1.2230755260       -3.3033654804
 C          1.2459508398        0.0754688646        3.7362272445
 C         -0.4772293293       -1.5031821281       -0.4226376794
 C          1.2018163644        1.3480242849        0.2376026846
 C          0.7287212719       -0.9521733920       -3.8989715327
 C          3.5374289162       -0.0147035903        2.9994787415
 C         -1.3783891573       -3.1000211037        1.1369598679
 C          2.4163502847        2.1147493715        3.2130383527
 C         -2.8210592693       -1.4430083948        0.1269127462
 C         -0.0324905880        3.3316024471       -0.3475384406
 C         -0.4493906259       -2.9865460468       -3.3735199802
 C          2.1398002844        2.9197730941       -1.3260298017
 C          1.9520606783       -2.8805704321       -3.1327275793
 C          2.3217085167       -2.1251393483        3.4571695741
 C          1.0341444581       -3.1776559693        0.5711623723
 C          0.0249684665        2.2280852855        3.7931318584
 C         -1.8949633656        0.2018314121       -1.4828939807
 C         -1.0033257564        1.7140543508        1.2619142903
 C         -1.7456750924       -0.9872465249       -3.9952064941
 C          3.4213735869        0.8838724862       -0.7298275621
 C          3.1697115404       -0.7733881612       -3.5987542100
 C          2.3745745514       -0.6694445494        3.4143829091
 C         -0.2906337565       -2.5904068024        0.4254838486
 C          1.2519746957        1.4648555568        3.6205543513
 C         -1.7344106637       -0.9239096096       -0.5757662281
 C          0.0627851724        2.1385923617        0.3680767025
 C         -0.4695940364       -1.6568356131       -3.7928305517
 C          2.2433888826        1.7306038497       -0.6020545585
 C          1.9370144777       -1.5496281149       -3.5587087225
 C          3.5395906278        1.3628304640        2.9172179090
 C         -2.6202199111       -2.5162365922        0.9754094057
 C          1.0050177030        3.6954499556       -1.1859665116
 C          0.7622068574       -3.5756122059       -3.0582041776
 C          3.0911230490       -4.2618750394        2.9157824316
 C          2.5765415597       -4.6625414180        1.5088540436
 C         -2.2850740308        2.4011246639        3.9927900528
 C         -2.8752634844        2.0248294257        2.5933041360
 C         -3.0835856633        1.6323260943       -2.8650570763
 C         -3.0660169240        0.9092681438       -4.2525561033
 C          5.4854000049        0.2930118119       -1.6539441490
 C          5.4029782615       -0.3651939047       -3.0558216818
 Br         5.1259857532        2.2597823769        2.3418523398
 Br        -4.1059157492       -3.2029732920        1.9615098989
 Br         0.8556298438        5.3140125866       -2.1906255861
 Br         0.7791930683       -5.3935050827       -2.4695187546
 N          3.2246748548       -2.8368132536        2.9350985040
 N          1.2586735399       -4.1320297759        1.3643551291
 N         -1.0679820726        1.6716634146        4.1073353206
 N         -3.0279092288        0.6217480919       -1.8578361206
 N         -1.9522160404        2.4779598281        1.6032966462
 N         -1.8150928474        0.2330757221       -4.3247521194
 N          4.3621771552        1.1644773464       -1.5214004948
 N          4.2376230041       -1.1963255888       -3.0740497334
 H          3.7026148526       -6.8170182924        3.8039186101
 H          5.3704765760       -6.8464063360        3.2226986032
 H          3.8044831503       -7.8952329672        1.5799309100
 H          4.5917652529       -6.4659564368        0.9045735540
 H         -4.5070922087        3.7495305379        4.9465374431
 H         -5.3096199299        2.3512506502        5.6664322279
 H         -5.3822582626        1.2280509927        3.4680416618
 H         -6.1504257127        2.8189656268        3.3587230579
 H         -3.6481537213        4.1755124074       -3.7999477242
 H         -5.4080264094        4.0351538561       -3.7407739972
 H         -4.5184112610        3.5052212277       -6.0133649719
 H         -5.3310625779        2.1122270331       -5.2924218270
 H          8.8963495615        0.8630980060       -1.7229475869
 H          8.0588464419       -0.5314856940       -1.0355421612
 H          8.7843074566       -1.0345524356       -3.3470167771
 H          7.9191989064        0.3850680592       -3.9442227898
 H          4.7866811730       -4.6195781743        4.1766660746
 H          5.1674387029       -4.4958984077        2.4567313788
 H          2.1652063304       -6.4464141921        0.3928045251
 H          1.7847587210       -6.5565793524        2.1131888181
 H         -3.3807484800        0.9080812173        5.0629565664
 H         -2.8514581338        2.2717712815        6.0528288087
 H         -4.0801803453        3.7804012123        2.4025255146
 H         -4.6258605422        2.4098127766        1.4310395495
 H         -5.2131243357        1.7730812753       -2.7355885161
 H         -4.3416330938        2.9609312776       -1.7598106539
 H         -2.3115139346        2.5947737119       -5.3320187430
 H         -3.1859592758        1.4260530925       -6.3263870278
 H          6.7230836684        1.9267876687       -2.2688584891
 H          6.8156092624        1.5569510858       -0.5450671667
 H          6.6495533482       -2.0364146978       -2.5757454849
 H          6.5693888040       -1.6632823144       -4.2999173168
 H          0.3339390790       -0.4075813854        4.0511226685
 H          0.3604083907       -1.1054417760       -0.9778629574
 H          1.2773441576        0.4298721768        0.8028546586
 H          0.6907019387        0.0761585881       -4.2235481663
 H          4.4072511965       -0.6011180339        2.7502904367
 H         -1.2241924480       -3.9409672814        1.7936430043
 H          2.4360586289        3.1899917642        3.1179306369
 H         -3.7916577247       -0.9919010811       -0.0022761001
 H         -0.9162344386        3.9390492784       -0.2360845026
 H         -1.3693183926       -3.5447508467       -3.2856320173
 H          2.9506359532        3.2067385646       -1.9759200724
 H          2.8940717483       -3.3348343489       -2.8703735229
 H          1.4356584205       -2.5572046199        3.9424912353
 H          1.8221026838       -2.7322345807       -0.0570086379
 H          0.0941391511        3.3044447736        3.5775989275
 H         -0.9569399921        0.6593228560       -1.8299369330
 H         -0.9239600433        0.6794225726        1.6265092910
 H         -2.6422083558       -1.5914200106       -3.7925903667
 H          3.4318689648       -0.0146474994       -0.0924842412
 H          3.1002658120        0.2084291424       -4.0870714706
 H          2.3469881433       -4.6126868826        3.6506942231
 H          3.2724499809       -4.2442480951        0.7602231301
 H         -2.1201439181        3.4925375660        3.9984035667
 H         -2.9771911836        0.9270436236        2.5797579484
 H         -2.1934062901        2.2820363700       -2.8370310459
 H         -3.9197371309        0.2096756200       -4.2702729595
 H          5.4728023058       -0.5122093175       -0.8981789183
 H          5.3356873977        0.4485715505       -3.7975188868
 C         -9.8161249850        2.4931454816        1.5564718460
 C         -9.3929653977        3.6131858999        2.5088791083
 O         -9.5771395225        2.8675711022        0.2101268354
 C         -8.2105032929        3.1925672007        0.0180428824
 C         -7.7853684624        4.3123981382        0.9694135231
 O         -8.0268757030        3.9404937873        2.3164726883
 H        -10.8858998193        2.2992089747        1.6342742719
 H        -10.0125993365        4.5033920147        2.3288536985
 H         -7.5929353401        2.3012406164        0.1985914826
 H         -8.3483115870        5.2272632258        0.7352989506
 H         -9.4883628613        3.2980527769        3.5480734813
 H         -8.1153139589        3.5076626167       -1.0210077695
 H         -6.7153388070        4.5033645997        0.8928824438
 H         -9.2513550498        1.5788705337        1.7894987846