142
-211.12678103
 C          5.0589978593       -6.1622230966        3.5189785555
 C          4.4668985490       -6.6854608539        2.2144125817
 C         -4.0154250450        2.7821177317        5.3065363057
 C         -4.6894469062        2.3129134310        4.0213129224
 C         -4.5922259910        2.9452987720       -3.4292455484
 C         -4.6507258723        2.1459836402       -4.7268789841
 C          8.1284873601        0.6428736757       -2.2777993399
 C          7.9760101944       -0.1046078916       -3.5984889813
 C          5.1078839861       -4.6387944762        3.5047320394
 C          3.0728138288       -6.1102503052        1.9961340645
 C         -2.6228926285        2.1741871514        5.4289159301
 C         -3.8402840128        2.6806116180        2.8098631919
 C         -4.3359534946        2.0199302914       -2.2451920823
 C         -3.3557139836        1.3682392920       -4.9309594450
 C          6.8684809819        1.4438278013       -1.9732387275
 C          6.7605426687       -1.0230066786       -3.5495561003
 C          1.8143916491        0.3050212705        3.8582126040
 C         -0.1528581722       -1.6322778039        0.0366256106
 C          1.4495640280        1.4456001813        0.2508379156
 C          0.8136314006       -1.1899150081       -3.6119030199
 C          4.0463069455        0.2057979470        2.9589913058
 C         -0.8999884748       -3.1361217044        1.7617547238
 C          2.8831536025        2.3204962708        3.0856327015
 C         -2.4559761415       -1.5930881879        0.7404098510
 C          0.0654917375        3.3292614545       -0.3303905536
 C         -0.1716647249       -3.2496128125       -2.8446733880
 C          2.1711460307        2.9735684046       -1.4637510176
 C          2.2290383759       -2.9724043177       -2.8250393560
 C          2.9291142673       -1.8851225448        3.6880083510
 C          1.4681388041       -3.2002655926        1.0366725203
 C          0.5400924093        2.4253033052        3.8461172923
 C         -1.6955261093       -0.0466356854       -1.0414289106
 C         -0.6817324704        1.7616676822        1.4388678656
 C         -1.6493852497       -1.3836267762       -3.4881691168
 C          3.6144108400        1.0510558352       -0.8647169008
 C          3.2502806241       -0.8314122958       -3.5487174778
 C          2.9372183180       -0.4384258834        3.5140522681
 C          0.1218824139       -2.6523287251        0.9424988294
 C          1.7716411859        1.6798936261        3.6315445351
 C         -1.4350452540       -1.0988011088       -0.0705420684
 C          0.2834959242        2.1845656970        0.4355921090
 C         -0.3195445648       -1.9590012943       -3.3508116756
 C          2.3991348472        1.8345915282       -0.6892740958
 C          2.0851083187       -1.6813064906       -3.3405094393
 C          4.0022698625        1.5717282505        2.7660240556
 C         -2.1664088989       -2.5962864423        1.6468226910
 C          1.0096216450        3.6966004711       -1.2713261121
 C          1.1009289987       -3.7343964391       -2.5980359944
 C          3.7155269301       -4.0459677977        3.2931201467
 C          3.1065319799       -4.5810616778        1.9707314026
 C         -1.7524020346        2.5473970770        4.2316647971
 C         -2.4462420003        2.0698885294        2.9125628974
 C         -3.0389156811        1.2385726946       -2.4296853691
 C         -3.0941221221        0.4211308434       -3.7626429332
 C          5.6397380321        0.5346684432       -1.9117955260
 C          5.4863533413       -0.2343915601       -3.2501107098
 Br         5.5156980593        2.4551921465        2.0028868055
 Br        -3.5595031988       -3.2428913158        2.7839415925
 Br         0.6898278562        5.2450552820       -2.3446021552
 Br         1.2943132235       -5.4988835798       -1.8893034689
 N          3.8162096263       -2.6228917507        3.1749280891
 N          1.7696199257       -4.0876168489        1.8807212354
 N         -0.5060957623        1.8623591231        4.2832703696
 N         -2.8673074722        0.3026740407       -1.3653686676
 N         -1.6316224163        2.5033937418        1.8237128660
 N         -1.8177446081       -0.1954898495       -3.8909625659
 N          4.4735541886        1.3407270302       -1.7414100602
 N          4.3895055527       -1.1419990201       -3.1012911036
 H          4.4458050226       -6.4986071351        4.3579976954
 H          6.0668336069       -6.5568313801        3.6584655413
 H          4.4082404418       -7.7746941770        2.2387334854
 H          5.1119520199       -6.4012793907        1.3801691051
 H         -3.9370414138        3.8717101950        5.3005328871
 H         -4.6148252780        2.4917181265        6.1708386197
 H         -4.8232643373        1.2293347925        4.0552189789
 H         -5.6749449962        2.7715633312        3.9268636623
 H         -3.7901377296        3.6841114198       -3.4928236951
 H         -5.5315294403        3.4788774339       -3.2759873317
 H         -4.8078774225        2.8170818544       -5.5727636020
 H         -5.4911124189        1.4491649532       -4.6880009612
 H          8.9833797266        1.3191349348       -2.3254808474
 H          8.3086622745       -0.0717821864       -1.4718041506
 H          8.8704459309       -0.6963954116       -3.8001907437
 H          7.8564172197        0.6142112224       -4.4121830482
 H          5.5080304639       -4.2604078711        4.4476229270
 H          5.7563228272       -4.2895471770        2.6994514838
 H          2.6561063618       -6.4638327573        1.0510422010
 H          2.4037518280       -6.4248906802        2.7985402531
 H         -2.6884087769        1.0861760709        5.4814362619
 H         -2.1315951478        2.5268189507        6.3380894177
 H         -3.7380631635        3.7642083701        2.7318385144
 H         -4.3089575384        2.3182086617        1.8932441768
 H         -5.1557329586        1.3082675351       -2.1349383267
 H         -4.2623817486        2.5968966253       -1.3216709440
 H         -2.5113941749        2.0545672318       -5.0140665028
 H         -3.4043933546        0.7803989295       -5.8498692111
 H          6.7008444601        2.1942227928       -2.7473799986
 H          6.9650996283        1.9613932351       -1.0168800128
 H          6.8885785299       -1.7773577393       -2.7714199303
 H          6.6339234550       -1.5404208287       -4.5027825261
 H          0.9428507166       -0.1705052649        4.2806665749
 H          0.6334112944       -1.2528301659       -0.6006375604
 H          1.6194126497        0.5646391125        0.8536529631
 H          0.6756782586       -0.1937499768       -4.0027836943
 H          4.9119717481       -0.3793294643        2.6926415151
 H         -0.6762856395       -3.9236059633        2.4631558168
 H          2.8653750370        3.3845616493        2.9039158858
 H         -3.4462638390       -1.1772317546        0.6467958702
 H         -0.8375701608        3.8976020126       -0.1758821880
 H         -1.0394956916       -3.8576102816       -2.6378077131
 H          2.9103662332        3.2648770410       -2.1923573144
 H          3.2192309943       -3.3440599232       -2.6150044206
 H          2.0880904509       -2.2901281782        4.2677550411
 H          2.1999411096       -2.7901742031        0.3228195558
 H          0.5606757398        3.4863252711        3.5575664663
 H         -0.8013012885        0.4187494400       -1.4813127630
 H         -0.5243687784        0.7517723569        1.8450159483
 H         -2.4871959786       -2.0215985679       -3.1710323207
 H          3.7316870981        0.1950105921       -0.1815651543
 H          3.0654023282        0.1048872481       -4.0933708264
 H          3.0361808197       -4.3407441653        4.1107457348
 H          3.7349949518       -4.2208914765        1.1372902838
 H         -1.6264416877        3.6417015257        4.1603280920
 H         -2.5017531951        0.9700060056        2.9656347439
 H         -2.1768821425        1.9209484180       -2.5132823075
 H         -3.9082039559       -0.3176795843       -3.6633677714
 H          5.7476971721       -0.2094439789       -1.1031304438
 H          5.2941474143        0.5129952630       -4.0383855346
 C        -13.3399934709        2.8741328432       -0.6052059238
 C        -12.0530587083        3.6999567941       -0.6549530754
 O        -14.2475367614        3.3052881447       -1.6057019498
 C        -13.6522945637        3.2227048444       -2.8897536349
 C        -12.3639633298        4.0467343233       -2.9401467713
 O        -11.4570011245        3.6167486066       -1.9388732739
 H        -13.8520201306        3.0064122949        0.3479867110
 H        -12.2811136971        4.7503437033       -0.4229846561
 H        -13.4264869744        2.1720791009       -3.1232697922
 H        -12.6013760860        5.1097682987       -2.7892674175
 H        -11.3150865313        3.3152163109        0.0490077381
 H        -14.3900165342        3.6094371051       -3.5929959901
 H        -11.8521073147        3.9117198247       -3.8931304669
 H        -13.1016093462        1.8116343562       -0.7584853441