142
-211.12678744
 C          2.2692530158       -6.3965075414        3.8052362914
 C          0.9496614817       -6.6836687192        3.0962780336
 C         -0.5262513633        5.8942525578        6.5519130966
 C         -1.8999909397        5.6590163433        5.9320930244
 C         -5.5785929000        5.4379896164       -0.9378803425
 C         -6.6005554103        4.6328093981       -1.7340528109
 C          4.0285961282       -2.6899475337       -4.1071750419
 C          2.9711647347       -3.3976793388       -4.9482188579
 C          2.8550704924       -5.0757143335        3.3197256795
 C         -0.0365220438       -5.5450723176        3.3273004130
 C          0.4016667435        4.7222105562        6.2527565737
 C         -1.7765714201        5.4475069813        4.4273003160
 C         -5.0995850490        4.6429779352        0.2716239434
 C         -6.0037291841        3.3008652025       -2.1744062078
 C          3.5020649937       -1.3490729771       -3.6101385175
 C          1.6939937713       -3.5925132697       -4.1392838891
 C          2.3030204273        0.8388867932        3.5750271694
 C         -1.9800210237       -0.3022805233        1.6405650409
 C          0.4713895251        1.5449667944        0.4559765378
 C         -3.0480358991       -0.8249249682       -1.8543059274
 C          3.5202050567       -0.3537977463        1.8728812270
 C         -2.1595726021       -1.0856297016        3.9095818021
 C          3.4422520399        2.0608302070        1.8398775602
 C         -3.3624521506        0.8918852554        3.2099640961
 C         -0.2326183693        3.7780287102       -0.1076442983
 C         -4.2077305260       -2.0226573193       -0.1157603245
 C          0.6574114731        2.3168345009       -1.8164277874
 C         -2.2347204782       -2.9747888889       -1.1346570973
 C          2.2785362158       -1.6251567375        3.6008528911
 C         -0.7406091431       -2.3287973893        2.3016684151
 C          2.0647017920        3.2994103550        3.4646800883
 C         -3.1813970563        1.6997154151        0.8716989105
 C         -0.4184540641        2.9871754798        2.2362628541
 C         -4.9612866038        0.2471860168       -0.7081034370
 C          1.3959954596        0.0202036030       -1.2468869574
 C         -0.9812441429       -1.7127922935       -2.8608971232
 C          2.7220135942       -0.3646333596        3.0198968366
 C         -1.6398807955       -1.2285718261        2.6217756179
 C          2.6418635301        2.0540102278        2.9814918262
 C         -2.8354837792        0.7590397108        1.9258531166
 C         -0.0647318209        2.7710210463        0.8420133294
 C         -4.0863957720       -0.8949313507       -0.9266029807
 C          0.8379062876        1.3104904207       -0.8657709156
 C         -2.1125035676       -1.8482848012       -1.9525791847
 C          3.8737500570        0.8566617087        1.3123408277
 C         -3.0085643867       -0.0292167655        4.1786094931
 C          0.1250156681        3.5285951300       -1.4198862287
 C         -3.2842504183       -3.0453867293       -0.2414238800
 C          1.8783506672       -3.9236587252        3.5525857010
 C          0.5355277642       -4.2143461558        2.8342908784
 C          0.5490504584        4.5092175059        4.7484590781
 C         -0.8617424320        4.2674896502        4.1161453888
 C         -4.4869297039        3.3138973369       -0.1578400076
 C         -5.5355844850        2.4854099906       -0.9719173010
 C          2.2250397143       -1.5312329036       -2.7873287488
 C          1.1507945768       -2.2541686141       -3.6401709000
 Br         4.9590899169        0.8740871322       -0.2599263190
 Br        -3.7076855940        0.1738804312        5.9453532348
 Br        -0.1359613587        4.9000807750       -2.7246162435
 Br        -3.4488129506       -4.5809352417        0.8838206868
 N          2.4154961876       -2.7218674541        2.9903293263
 N         -0.3715524613       -3.1640803630        3.1714541345
 N          1.3029349173        3.3329074305        4.4750924464
 N         -4.1235679582        2.5365185434        0.9834332509
 N         -0.6778109573        4.1324859133        2.7066891641
 N         -4.8566893147        1.3069878038       -1.3924210877
 N          1.7079407637       -0.2463498872       -2.4393900566
 N          0.0169032247       -2.4834859422       -2.7972149972
 H          2.0998912761       -6.3447644424        4.8830501359
 H          2.9806840563       -7.2016539213        3.6140771806
 H          0.5188226904       -7.6147141058        3.4677213379
 H          1.1279410282       -6.7986936675        2.0248832869
 H         -0.0949998229        6.8118472292        6.1451385966
 H         -0.6197255744        6.0157222256        7.6322567928
 H         -2.3578036987        4.7770924609        6.3857989779
 H         -2.5492619760        6.5139630681        6.1271832659
 H         -4.7249808262        5.6755820670       -1.5767384193
 H         -6.0213550739        6.3775556545       -0.6036134180
 H         -6.9173685400        5.1962968930       -2.6130961699
 H         -7.4818714549        4.4488893436       -1.1152777709
 H          4.9308947672       -2.5262266001       -4.6983295824
 H          4.2946148409       -3.3156085901       -3.2523880699
 H          3.3432592943       -4.3687304585       -5.2791601379
 H          2.7517815588       -2.7999611484       -5.8357130233
 H          3.7865424230       -4.8547032960        3.8449811246
 H          3.0752496330       -5.1299337444        2.2522124619
 H         -0.9738921414       -5.7375343728        2.8019266743
 H         -0.2608616778       -5.4486005022        4.3907070773
 H          0.0078763747        3.8052587320        6.6941830734
 H          1.3918130795        4.9025176095        6.6763911483
 H         -1.3669280180        6.3390736659        3.9498263627
 H         -2.7566048091        5.2495785367        3.9895575421
 H         -5.9320029189        4.4389019482        0.9470022823
 H         -4.3467628018        5.2079705978        0.8241509784
 H         -5.1490959690        3.4679623591       -2.8319914850
 H         -6.7432219713        2.7151145688       -2.7243171864
 H          3.2757759280       -0.6950409713       -4.4536198437
 H          4.2486965814       -0.8506325878       -2.9890276581
 H          1.8882124555       -4.2291372316       -3.2744264136
 H          0.9262996659       -4.0753968976       -4.7474244588
 H          1.6810670505        0.8559961381        4.4565648716
 H         -1.5834880421       -0.4095291574        0.6408728520
 H          0.6116111325        0.7708878049        1.1970880206
 H         -2.9711941055        0.0576203925       -2.4702933722
 H          3.8404348730       -1.2922770794        1.4495153360
 H         -1.8891631787       -1.8066103964        4.6640859024
 H          3.7116870853        2.9937899971        1.3680889918
 H         -4.0286658735        1.7131776990        3.4197082465
 H         -0.6428408705        4.7259226457        0.2014619741
 H         -5.0055331001       -2.0906157874        0.6084480055
 H          0.9425214365        2.1258490204       -2.8384173651
 H         -1.5040289671       -3.7632827077       -1.2177221613
 H          1.7898052012       -1.5530306164        4.5823206309
 H         -0.4080055847       -2.3796961200        1.2525893996
 H          2.2857810992        4.1957258012        2.8667577633
 H         -2.5689228392        1.6258570252       -0.0390263092
 H         -0.4341662699        2.0809280080        2.8596204570
 H         -5.6768138735        0.1531391505        0.1219264517
 H          1.5269246155       -0.7014579902       -0.4247755590
 H         -1.0394229486       -0.8801357486       -3.5754698624
 H          1.6587873933       -3.8087475805        4.6276109329
 H          0.7312806054       -4.2555110930        1.7481538430
 H          0.9791206666        5.4029018414        4.2637798388
 H         -1.2526490160        3.3393724446        4.5647995834
 H         -3.6265542076        3.4770705377       -0.8275623044
 H         -6.3781096427        2.2627765592       -0.2942543196
 H          2.4244555116       -2.1496516128       -1.8942875218
 H          0.9026804994       -1.5926144056       -4.4874231160
 C          7.7774735865       -4.5005775664      -11.3161845516
 C          6.3738095707       -4.4782942648      -11.9246696739
 O          8.7207637449       -4.9851147388      -12.2573276805
 C          8.7010740126       -4.1965693350      -13.4354452412
 C          7.2974646601       -4.1740582283      -14.0440860000
 O          6.3538104119       -3.6900920322      -13.1031258759
 H          7.8221999005       -5.1779852180      -10.4633166940
 H          6.0604587509       -5.5048083250      -12.1640700672
 H          9.0145137743       -3.1701417850      -13.1958525391
 H          7.0161459257       -5.1899254482      -14.3573565300
 H          5.6591923477       -4.0212320997      -11.2401248588
 H          9.4157648880       -4.6532404661      -14.1202225853
 H          7.2530308003       -3.4964186972      -14.8967928035
 H          8.0589930004       -3.4846407043      -11.0034958634