142
-211.12659845
 C          3.9555552968       -6.3982608181        3.5357386775
 C          3.1258226155       -6.7949960666        2.3190197278
 C         -2.7448186945        4.2844961096        5.9494513102
 C         -3.6422541018        3.9377810063        4.7660384327
 C         -4.1963189656        4.4805031984       -2.7567231899
 C         -4.5629341242        3.6876205194       -4.0069129568
 C          7.8026505069       -0.3607035473       -2.7980919157
 C          7.3634253904       -1.0830938719       -4.0675228745
 C          4.3321459997       -4.9230826092        3.4619038622
 C          1.8751278406       -5.9297404661        2.2243562572
 C         -1.4981112081        3.4074312909        5.9456062231
 C         -2.8813527201        4.1034049871        3.4555368249
 C         -4.0197890268        3.5447038718       -1.5663508565
 C         -3.4927874122        2.6444127152       -4.3069984803
 C          6.7646688505        0.6785551146       -2.3924706058
 C          6.0042780734       -1.7407482898       -3.8589231547
 C          2.2379856591        0.6233065829        3.9776180982
 C         -0.4935785045       -0.8811841784        0.4387572425
 C          1.7276867331        1.7881882499        0.3828135025
 C          0.1716451732       -0.6983329757       -3.3087194572
 C          4.2883142803        0.0353764041        2.8599782081
 C         -1.3568568292       -2.1566411353        2.2890112329
 C          3.6226054879        2.3526825697        3.0327835444
 C         -2.6491848932       -0.3347549426        1.3640662505
 C          0.6866071767        3.9026938893       -0.1135617128
 C         -1.1248275468       -2.4996809919       -2.3732723867
 C          2.5383565740        3.1162881232       -1.4541740848
 C          1.2707811998       -2.7223693155       -2.6058824544
 C          2.8333348908       -1.7569110842        3.7694815982
 C          0.8511011825       -2.7466103927        1.3325598041
 C          1.4483096278        2.9659219208        4.0241205573
 C         -1.7690704016        0.9786925068       -0.5454774995
 C         -0.1493799647        2.5433300017        1.7833869195
 C         -2.2509045315       -0.3769063375       -2.9307358483
 C          3.6338956059        0.9538578825       -0.9425582974
 C          2.6219466922       -0.8462134807       -3.5058043015
 C          3.1330832368       -0.3485858018        3.5463219263
 C         -0.3481955726       -1.9202904734        1.3530355311
 C          2.4647546712        1.9724877352        3.7099525394
 C         -1.6376530361       -0.0867731175        0.4368492301
 C          0.7597466491        2.7488204654        0.6659871284
 C         -1.0599924356       -1.2134854559       -2.9073551473
 C          2.6233641379        1.9660789848       -0.6674085710
 C          1.3383647954       -1.4368531181       -3.1499788766
 C          4.5160242704        1.3766911224        2.6270134651
 C         -2.4845366377       -1.3586103913        2.2786248821
 C          1.5712797536        4.0594912433       -1.1645021976
 C          0.0416578263       -3.2322895180       -2.2392614361
 C          3.0872925042       -4.0413906789        3.3733437006
 C          2.2376711557       -4.4460129597        2.1402416131
 C         -0.7129182532        3.5717564666        4.6467344736
 C         -1.6344284883        3.2250447577        3.4305212776
 C         -2.9456570810        2.4981480498       -1.8456330781
 C         -3.3125169233        1.6864552683       -3.1320776371
 C          5.3954268143        0.0330561453       -2.1723064794
 C          4.9500566986       -0.7092563817       -3.4595325981
 Br         6.0940260194        1.9048931295        1.6864071379
 Br        -3.8560373151       -1.6701935993        3.5724679802
 Br         1.4436038908        5.6249166248       -2.2530911624
 Br        -0.0539086409       -4.9892154490       -1.4925121188
 N          3.4807137192       -2.6765553034        3.1953229820
 N          1.0378162047       -3.6723593793        2.1685507858
 N          0.3636578484        2.6427152731        4.5908977539
 N         -2.8669344513        1.5669254612       -0.7665485320
 N         -0.8789978101        3.4683543751        2.2440898301
 N         -2.2131298432        0.8124863465       -3.3620747512
 N          4.4358925715        1.0576192356       -1.9104269936
 N          3.7172695593       -1.3753998114       -3.1670127567
 H          3.3789425467       -6.5813743774        4.4451886240
 H          4.8627990191       -7.0027965549        3.5843866022
 H          2.8344185626       -7.8440943052        2.3891331987
 H          3.7227805170       -6.6709599143        1.4129159891
 H         -2.4506818844        5.3348286302        5.8888704046
 H         -3.2870559202        4.1393865719        6.8851288438
 H         -3.9845733589        2.9046466940        4.8592130318
 H         -4.5207505200        4.5848823977        4.7604456504
 H         -3.2659681471        5.0256350945       -2.9312735453
 H         -4.9772290375        5.2090891900       -2.5334029883
 H         -4.6628259839        4.3601222645       -4.8603554314
 H         -5.5234509283        3.1900084103       -3.8546978410
 H          8.7626077114        0.1321077979       -2.9595569736
 H          7.9272205412       -1.0845504174       -1.9898212222
 H          8.0973065410       -1.8436322619       -4.3394009105
 H          7.2987045420       -0.3673400178       -4.8900997902
 H          4.9043194482       -4.6303058829        4.3446664099
 H          4.9501271054       -4.7348640599        2.5823775296
 H          1.2919558952       -6.1948822597        1.3403565907
 H          1.2443608764       -6.0790077755        3.1020500442
 H         -1.7746249377        2.3569734978        6.0500685707
 H         -0.8450972793        3.6690654013        6.7807492304
 H         -2.5748743466        5.1421704067        3.3223141139
 H         -3.5148530751        3.8266484172        2.6109959875
 H         -4.9557728720        3.0288587788       -1.3460271001
 H         -3.7278623525        4.1096576972       -0.6793318387
 H         -2.5359970041        3.1304404874       -4.5047699530
 H         -3.7644222292        2.0623785786       -5.1900774545
 H          6.6645185708        1.4370348094       -3.1704057194
 H          7.0642561195        1.1789749306       -1.4695950200
 H          6.0658716357       -2.4926761442       -3.0704457007
 H          5.6759940159       -2.2380806782       -4.7739334183
 H          1.3352897220        0.3516154046        4.5024912278
 H          0.2842019016       -0.6912115960       -0.2873866093
 H          1.7869169874        0.8994732564        0.9951812438
 H          0.1987083503        0.2992669419       -3.7188672889
 H          4.9760718735       -0.7251425291        2.5263421882
 H         -1.2330002121       -2.9607047677        2.9963312525
 H          3.8128884455        3.3935279555        2.8182587958
 H         -3.5333834463        0.2819573285        1.3511423096
 H         -0.0626540093        4.6428830385        0.1168326568
 H         -2.0710968637       -2.9130199522       -2.0582171442
 H          3.2336142462        3.2432639959       -2.2682241011
 H          2.1810253358       -3.2873731430       -2.4837216672
 H          1.9916396518       -1.9621968889        4.4454923376
 H          1.5775514008       -2.5114795685        0.5387313464
 H          1.6573952122        3.9939685948        3.6942903215
 H         -0.8473325039        1.2322979959       -1.0892535017
 H         -0.1527639580        1.5276833505        2.2053239174
 H         -3.1631117116       -0.8210767820       -2.5064410432
 H          3.6517682628        0.0983057898       -0.2490993711
 H          2.5717487443        0.1001502204       -4.0621118340
 H          2.4524269718       -4.1699955837        4.2663078143
 H          2.8362147509       -4.2437102373        1.2347266793
 H         -0.3746209923        4.6145293751        4.5181311057
 H         -1.9015568567        2.1600487917        3.5308820112
 H         -1.9718792202        2.9766752493       -2.0416002289
 H         -4.2472912585        1.1385121124       -2.9214692776
 H          5.4419877166       -0.7060825843       -1.3533637729
 H          4.8262290923        0.0498107233       -4.2504047925
 C        -10.6161865724       -3.2190401232       -4.4798365804
 C        -11.8041614033       -2.9482925175       -3.5544889371
 O        -11.0614432410       -3.7202904765       -5.7289960055
 C        -11.9700392265       -2.8161501315       -6.3354105551
 C        -13.1572217431       -2.5433791794       -5.4095058316
 O        -12.7104679657       -2.0422105555       -4.1607070604
 H         -9.9611958963       -3.9829937317       -4.0606166255
 H        -12.3211523061       -3.8933875546       -3.3341052523
 H        -11.4535011415       -1.8715177216       -6.5592961271
 H        -13.7218145383       -3.4735986161       -5.2514383910
 H        -11.4771662267       -2.4783520180       -2.6268491930
 H        -12.2981384689       -3.2889876102       -7.2611456253
 H        -13.8108360834       -1.7784093098       -5.8288852688
 H        -10.0532214775       -2.2875679603       -4.6375157774