142
-211.13216048
 C          1.7823151028       -7.1918513829        1.9486400019
 C          1.4222723796       -7.2672515363        0.4684218563
 C         -5.4135905075        3.2418845979        4.4015846785
 C         -5.9050976246        3.1659689474        2.9595784402
 C         -3.7927411860        5.1491250864       -4.4370885927
 C         -3.7285499529        4.6082909434       -5.8620247392
 C          7.2205830990       -0.8380662242       -1.1438650410
 C          7.2666141537       -1.2755776424       -2.6043396260
 C          2.1428613078       -5.7618064768        2.3341981117
 C          0.2685996401       -6.3227227172        0.1538316460
 C         -4.2424228475        2.2898178160        4.6167322277
 C         -4.7715164762        3.4884925634        1.9924750169
 C         -4.0460913380        4.0168270594       -3.4479810690
 C         -2.6440724798        3.5432150073       -5.9802475768
 C          6.1359862617        0.2122886984       -0.9370862873
 C          5.9092893529       -1.8165555963       -3.0389036577
 C         -0.0647431073       -0.3336305878        3.3482598404
 C         -1.4078277543       -0.9145316200       -1.2608872598
 C          0.5109133151        1.3207579509        0.1356486110
 C          0.3383601228       -0.2772268530       -4.4432347955
 C          2.2471259490       -0.8025606700        2.8707589925
 C         -2.8233301628       -2.4275482232       -0.0355389847
 C          1.5324153222        1.4662679639        3.2912757588
 C         -3.7413008553       -0.3947694593       -0.9694560282
 C         -0.2564310732        3.5597641570       -0.3094976714
 C         -1.2812607051       -2.0589551762       -4.3838781225
 C          1.9118578824        2.8385747387       -1.1005807694
 C          1.0249143521       -2.4978013869       -3.8117057731
 C          0.5966842667       -2.6506985338        2.8379928726
 C         -0.4266111922       -2.9812887456       -0.3418798610
 C         -0.8504434982        1.9957971845        3.6246109166
 C         -2.2865549012        1.1625184011       -2.2384829820
 C         -1.6960210418        2.0020470019        0.9764706376
 C         -2.0456857172        0.2342589528       -4.8632683314
 C          2.7199147579        0.5419153499       -0.6331830117
 C          2.6808271847       -0.6526817095       -3.7797243926
 C          0.9343339852       -1.2481055291        3.0381230764
 C         -1.5673989317       -2.0998915089       -0.5496296703
 C          0.2208927306        1.0261855579        3.4571823258
 C         -2.4855418726       -0.0585987435       -1.4736672092
 C         -0.4715079016        2.3010836236        0.2504450412
 C         -0.9753579168       -0.7161672360       -4.6013563847
 C          1.7045767341        1.5811802785       -0.5305109038
 C          1.3364333293       -1.1537273294       -4.0335564130
 C          2.5209057952        0.5407404937        3.0151121194
 C         -3.8837131614       -1.5689796690       -0.2533254120
 C          0.9276201614        3.8009926882       -0.9816542128
 C         -0.2730665392       -2.9262830895       -4.0020117338
 C          0.9916825304       -4.8039347332        2.0298303945
 C          0.6224512136       -4.8815298020        0.5261387599
 C         -3.0919956921        2.6127499035        3.6669977153
 C         -3.5990884468        2.5328203910        2.1886760557
 C         -2.9574445686        2.9532028515       -3.5478947746
 C         -2.8968331837        2.3939782260       -5.0077390618
 C          4.7664871414       -0.3235277283       -1.3598201287
 C          4.8144412868       -0.7685301018       -2.8441096268
 Br         4.3118872316        1.1485249553        2.8031674872
 Br        -5.5980604321       -2.0099190436        0.4656398113
 Br         1.2042776526        5.5157602602       -1.7770141809
 Br        -0.7033114587       -4.7621199427       -3.6943288858
 N          1.4035321396       -3.4598256089        2.3006392485
 N         -0.5213043755       -4.0522246888        0.3173728416
 N         -2.0564637876        1.6415552274        3.7772785676
 N         -3.2474917496        1.8557439160       -2.6814533060
 N         -2.5074453379        2.8998432432        1.3450021239
 N         -1.8154329747        1.4682669116       -5.0253837159
 N          3.8026964811        0.7248239391       -1.2532003003
 N          3.5411993892       -1.3403385496       -3.1622491911
 H          0.9324364681       -7.5268793702        2.5474602129
 H          2.6262079095       -7.8496882358        2.1632398414
 H          1.1368327471       -8.2862446285        0.2027431156
 H          2.2912554783       -6.9928396667       -0.1336203335
 H         -5.0972475168        4.2632309503        4.6257546479
 H         -6.2224937371        2.9815764976        5.0860668197
 H         -6.2809507985        2.1608922370        2.7553084629
 H         -6.7245951736        3.8699106259        2.8067554771
 H         -2.8486238932        5.6406092576       -4.1913962885
 H         -4.5898673833        5.8896291019       -4.3542735749
 H         -3.5169602296        5.4196772821       -6.5602584067
 H         -4.6944746176        4.1746412600       -6.1312224906
 H          8.1848206492       -0.4237554896       -0.8456139143
 H          7.0146569985       -1.7028863719       -0.5094352193
 H          8.0259047299       -2.0474297905       -2.7408680617
 H          7.5356791096       -0.4228910668       -3.2317156311
 H          2.3751206510       -5.7001177912        3.3993849388
 H          3.0218090552       -5.4308661482        1.7783703549
 H          0.0234336984       -6.3581155838       -0.9093336046
 H         -0.6217026554       -6.6128195724        0.7139190639
 H         -4.5552912687        1.2591685522        4.4418250086
 H         -3.8763668002        2.3619563522        5.6429844950
 H         -4.4166643623        4.5085154890        2.1484827320
 H         -5.1164146154        3.4051303377        0.9602542662
 H         -5.0100463759        3.5458365200       -3.6472754651
 H         -4.0625281250        4.4002130137       -2.4260917092
 H         -1.6654916445        3.9728790746       -5.7598976986
 H         -2.6150681154        3.1398777561       -6.9946229545
 H          6.3533335228        1.1024815417       -1.5292398573
 H          6.0855014857        0.5098024595        0.1119712139
 H          5.6492520388       -2.6996084396       -2.4526892401
 H          5.9322845797       -2.1057560203       -4.0916299544
 H         -1.0868593691       -0.6542530858        3.4812554958
 H         -0.4383127438       -0.6566111899       -1.6629804453
 H          0.3456248351        0.3495877651        0.5802498949
 H          0.5531102995        0.7661458315       -4.6148775372
 H          3.0179450784       -1.5197697594        2.6381817242
 H         -2.9373300745       -3.3466761461        0.5162160356
 H          1.7709665307        2.5160893880        3.3757570306
 H         -4.5707617379        0.2715758995       -1.1436088039
 H         -1.0202945350        4.3141451499       -0.2106948242
 H         -2.2942073334       -2.4136737501       -4.5008916349
 H          2.8384423423        3.0307198531       -1.6170523644
 H          1.8055237095       -3.1704006319       -3.4942409026
 H         -0.4146955029       -2.9475168896        3.1498658412
 H          0.5183096242       -2.6501027391       -0.8014572280
 H         -0.5552637588        3.0537628050        3.5596320685
 H         -1.2359692251        1.4366678937       -2.4149416951
 H         -1.8617347149        0.9365929608        1.1941825933
 H         -3.0662523262       -0.1758621510       -4.8542428219
 H          2.4772703087       -0.4087223270       -0.1317599635
 H          2.8820800544        0.3702374127       -4.1269293437
 H          0.0914252729       -5.0791125246        2.6052950748
 H          1.4936755103       -4.5337202938       -0.0566607361
 H         -2.7204890449        3.6390696130        3.8322069778
 H         -3.9106085895        1.4890722856        2.0188338147
 H         -1.9658656063        3.3854764717       -3.3356530395
 H         -3.8658799487        1.9076122468       -5.2153548626
 H          4.4885329935       -1.2005643937       -0.7489353057
 H          5.0209892277        0.1295032073       -3.4507206979
 C          1.1547574688       -0.2358561922        6.8798052041
 C          1.1027837540        0.9432966051        7.8529522159
 O          2.2213167849       -0.0763748846        5.9589333490
 C          3.4563976102        0.0576132132        6.6483156480
 C          3.4033747066        1.2408344967        7.6150337224
 O          2.3361155064        1.0841362196        8.5350267363
 H          0.2435687151       -0.2894863094        6.2839475118
 H          0.8802732485        1.8669246971        7.2981695585
 H          3.6664732948       -0.8660037240        7.2060307737
 H          3.2672347015        2.1730900100        7.0477211390
 H          0.3455328230        0.7810872297        8.6200676182
 H          4.2208535814        0.2119286481        5.8870709389
 H          4.3143115090        1.2988534542        8.2105489054
 H          1.2932806954       -1.1709835927        7.4404098094