142
-211.12683781
 C          2.6242275405       -7.2026020612        1.6492831208
 C          2.5814868421       -7.2170967261        0.1247080872
 C         -6.0678391867        2.2151794733        3.0265769526
 C         -6.2434425903        2.1979058086        1.5114977527
 C         -2.9626383531        4.9567714115       -5.0675725335
 C         -2.5651102099        4.5457130582       -6.4816502678
 C          7.8496814192        0.0542178010        0.0056088648
 C          8.2321476193       -0.2729621110       -1.4342315487
 C          2.7343002214       -5.7716078695        2.1627071034
 C          1.4157390899       -6.3767585086       -0.3822369927
 C         -4.8574860237        1.3817001940        3.4319699355
 C         -4.9859290700        2.7171269003        0.8234562487
 C         -3.2687007167        3.7257395524       -4.2219424936
 C         -1.3610679142        3.6113007920       -6.4465725861
 C          6.6200010359        0.9536856191        0.0379404537
 C          7.0647186687       -0.9370126039       -2.1552065715
 C         -0.2413795891       -0.6846089399        2.9551688280
 C         -0.5576059831       -1.0757106713       -1.8442944000
 C          0.7943645825        1.3139227548        0.0008797380
 C          1.7146875621        0.0410666129       -4.5648323717
 C          2.1592157023       -0.8765804455        2.9240147616
 C         -2.0027395013       -2.8291474974       -1.0492703410
 C          1.1198853371        1.2698002849        3.3137826848
 C         -2.9462300584       -0.8325525190       -2.0339431796
 C         -0.1498231770        3.4783233991       -0.4723351622
 C          0.3559204501       -1.9150582793       -4.9224122091
 C          2.2049049667        3.0726853486       -0.8428088035
 C          2.5454140735       -2.1259411270       -3.9214519547
 C          0.7692091609       -2.8786483636        2.4695473485
 C          0.4537239725       -3.0976670319       -0.8593633783
 C         -1.3279587237        1.5264901809        3.1826575750
 C         -1.4607281143        0.9723393851       -2.8616711591
 C         -1.6050909018        1.6708280432        0.4028058586
 C         -0.5881538658        0.3063671336       -5.4262635217
 C          3.1932938207        0.8558038242       -0.3405170250
 C          3.9142729934       -0.1079691890       -3.4679724181
 C          0.8979809145       -1.4665783121        2.8050143284
 C         -0.7166599792       -2.3274619887       -1.2574452283
 C         -0.1400880858        0.6858162542        3.1904079538
 C         -1.6634008453       -0.3235313252       -2.2328695192
 C         -0.3084596016        2.1636442847       -0.0357522520
 C          0.5233111779       -0.5334525600       -5.0052196227
 C          2.0523939271        1.7598175342       -0.3931386930
 C          2.7192153511       -0.7420990635       -4.0086117349
 C          2.2457284752        0.4754309902        3.1869750001
 C         -3.0909597854       -2.0723810853       -1.4392719471
 C          1.1020620146        3.9042970561       -0.8762520215
 C          1.3743446145       -2.6860159111       -4.3900975292
 C          1.5659432637       -4.9198787937        1.6679240520
 C          1.5193659682       -4.9346568966        0.1182653177
 C         -3.5861912439        1.9008983778        2.7652303994
 C         -3.7677522075        1.8852265100        1.2114486379
 C         -2.0654825203        2.7900995052       -4.1665227131
 C         -1.6565959485        2.3651321611       -5.6158744345
 C          5.4376817923        0.2922638695       -0.6731718505
 C          5.8275623927       -0.0403595755       -2.1364564923
 Br         3.9687186877        1.2856476595        3.3449305508
 Br        -4.8510713219       -2.7530977905       -1.1398801861
 Br         1.3078507709        5.6950073560       -1.5099772466
 Br         1.1315123941       -4.5773458577       -4.2670649452
 N          1.7566176142       -3.5621753751        2.0795182740
 N          0.3531516965       -4.2167177501       -0.2866077603
 N         -2.4863050839        1.0384427765        3.0348643131
 N         -2.3894617565        1.5987832910       -3.4493227116
 N         -2.5817725024        2.4387692976        0.6400716273
 N         -0.4870368827        1.5673830603       -5.4689104098
 N          4.3447622028        1.2106843120       -0.7130415034
 N          4.7236987924       -0.7337855709       -2.7280520562
 H          1.7146693985       -7.6612928012        2.0434378118
 H          3.4765220507       -7.7832639935        2.0061161221
 H          2.4728982968       -8.2403332781       -0.2380997004
 H          3.5174320746       -6.8168149047       -0.2710251233
 H         -5.9301939774        3.2443789441        3.3660075179
 H         -6.9607804263        1.8168380890        3.5109080011
 H         -6.4428037079        1.1764009409        1.1798612642
 H         -7.0955440236        2.8171586800        1.2268378415
 H         -2.1458375954        5.5182978543       -4.6084642700
 H         -3.8406139128        5.6038436332       -5.0993376064
 H         -2.3205150932        5.4295500913       -7.0729234541
 H         -3.4043645660        4.0387953109       -6.9634524717
 H          8.6771575557        0.5566309485        0.5088823970
 H          7.6377918148       -0.8704787328        0.5467799794
 H          9.0959346027       -0.9396850160       -1.4504569551
 H          8.5059553758        0.6466603307       -1.9561482599
 H          2.7390486507       -5.7566112101        3.2545511475
 H          3.6634008365       -5.3163388847        1.8156406300
 H          1.3973291061       -6.3660452640       -1.4736752991
 H          0.4693190222       -6.7931065341       -0.0338902342
 H         -4.9999326695        0.3402127892        3.1391392191
 H         -4.7184353767        1.4118070788        4.5146525344
 H         -4.7997439137        3.7550857863        1.1038940480
 H         -5.1012956972        2.6755269590       -0.2611043193
 H         -4.1147829630        3.1777183861       -4.6397011590
 H         -3.5262284182        4.0185708815       -3.2025574131
 H         -0.4998735138        4.1200854681       -6.0103990463
 H         -1.0918825555        3.2985020295       -7.4575567995
 H          6.8314748692        1.9021772418       -0.4581425142
 H          6.3306094958        1.1696617557        1.0681203730
 H          6.8119203235       -1.8829670159       -1.6733048146
 H          7.3271914226       -1.1476411942       -3.1940070421
 H         -1.2260118675       -1.1158646608        2.8618232135
 H          0.4355768010       -0.6829944702       -2.0103796489
 H          0.6697155387        0.2986690056        0.3499844383
 H          1.8227554940        1.1121729759       -4.6370234913
 H          3.0374169170       -1.4909007520        2.8058127692
 H         -2.1164411260       -3.7988489873       -0.5921269374
 H          1.2145184279        2.3298634948        3.4951648376
 H         -3.7958063722       -0.2451709279       -2.3430833147
 H         -1.0078978231        4.1306845823       -0.4911069121
 H         -0.5611859497       -2.3749141797       -5.2586066704
 H          3.1822090544        3.4084556842       -1.1499531960
 H          3.3294397651       -2.7256843133       -3.4876321784
 H         -0.2440728019       -3.2966433253        2.5466568277
 H          1.4268990297       -2.6375711212       -1.0935974001
 H         -1.1521127354        2.6096914179        3.2568609505
 H         -0.4360832024        1.3673281407       -2.7985039642
 H         -1.6737605303        0.5797541265        0.5245568138
 H         -1.5306389689       -0.2155613520       -5.6475076873
 H          2.9816708049       -0.1528021234        0.0489794693
 H          4.0435782814        0.9545299064       -3.7165133321
 H          0.6059656556       -5.3251250805        2.0302933466
 H          2.4442035608       -4.4604354383       -0.2550441058
 H         -3.3823106814        2.9439583124        3.0638045188
 H         -3.9040794156        0.8305040644        0.9211621961
 H         -1.1912772552        3.3006108308       -3.7300366758
 H         -2.5002084290        1.7960396179       -6.0437080185
 H          5.1626032461       -0.6518380714       -0.1705976479
 H          6.0302270500        0.9155268660       -2.6486202478
 C         -5.3183842179        0.1713031558       12.4200461905
 C         -4.1129854019        0.7043023228       11.6429792558
 O         -6.3039947609        1.1800826887       12.5641268459
 C         -6.7061532935        1.6702974978       11.2961164324
 C         -5.5009882969        2.2038962813       10.5191921439
 O         -4.5143717943        1.1955695565       10.3747814988
 H         -5.0321535403       -0.1220237419       13.4301074167
 H         -3.6346760652        1.5123183970       12.2152575891
 H         -7.1837556263        0.8617488813       10.7240283259
 H         -5.0713561471        3.0642593939       11.0524280637
 H         -3.3923260525       -0.0900015257       11.4479553376
 H         -7.4271596736        2.4642806865       11.4908837746
 H         -5.7868858695        2.4972488974        9.5090050540
 H         -5.7482994977       -0.6891606056       11.8871942722