142
-211.12825333
 C         -6.5368500859       -2.4330509102        4.8531152315
 C         -7.3667574774       -2.8835115961        3.6548198697
 C          4.8930122253        1.4916420293        6.5835978104
 C          4.5092415279        2.9664299413        6.5928518530
 C          2.4037725461       -6.1246534439       -4.3528151891
 C          3.5365693637       -5.7434531277       -3.4046305309
 C          5.6264222117        4.8175958655       -6.1825666224
 C          4.5670189432        4.0760711445       -6.9916490646
 C         -5.0671279263       -2.7847934609        4.6497645699
 C         -6.8352507757       -2.2558798172        2.3706915565
 C          3.7862648553        0.6674884470        5.9390707403
 C          4.2431754080        3.4460122090        5.1720056722
 C          1.0636284368       -5.6492942193       -3.8020541208
 C          3.5546537802       -4.2368709851       -3.1703431026
 C          5.0117590753        5.4192356601       -4.9238921690
 C          3.9128678831        2.9905211695       -6.1445155234
 C          0.1523850644       -1.1586229447        3.1221319753
 C         -2.3479128876       -2.5395751642       -1.5474488154
 C          2.8585616058        4.1171709079        0.4865759434
 C          1.6989419040        0.4845707242       -2.3615108098
 C         -0.5706752495       -3.2628285381        2.1953542852
 C         -3.7592908866       -0.6075194894       -1.2486747788
 C          1.7796672864       -2.6943567830        2.2291983667
 C         -2.0871474382       -0.6303899905       -2.9910381196
 C          1.0767664440        5.5153645887        1.3071295232
 C          0.4697082983        0.0353894590       -0.3387071617
 C          1.9211241591        5.8232584332       -0.9341245065
 C          0.5507927412        2.2765196889       -1.2300348360
 C         -2.2592444285       -1.6814358779        3.0807302764
 C         -4.0023277863       -2.5464956761        0.2754380286
 C          2.5677271148       -0.5905209944        3.2332020509
 C         -0.5725032698       -2.5374259256       -3.2880802187
 C          2.0664354204        3.8569375210        2.8279290820
 C          1.5065965805       -1.8459107795       -1.5209436026
 C          3.6676397579        4.3268989836       -1.8374570303
 C          1.8021764639        2.7905461361       -3.2800303109
 C         -0.8744511668       -2.0405061558        2.7997680021
 C         -3.3706887228       -1.8926906022       -0.8621401844
 C          1.4804902858       -1.4801596154        2.8465269035
 C         -1.6963925686       -1.9133746058       -2.6077118009
 C          1.9959966041        4.4876507569        1.5165446591
 C          1.2481366271       -0.4195640307       -1.4039976323
 C          2.8227032985        4.7730461298       -0.7392338729
 C          1.3434188879        1.8273201908       -2.2876772988
 C          0.7483872212       -3.5648467479        1.9247070408
 C         -3.1137561605       -0.0041452219       -2.3080566618
 C          1.0629874982        6.1713193240        0.0887687828
 C          0.1500159006        1.3762158165       -0.2627839655
 C         -4.5291118961       -2.1376871301        3.3712551580
 C         -5.3662337361       -2.6157452051        2.1595297217
 C          3.4974318774        1.1354326389        4.5039666576
 C          3.1295917823        2.6270756876        4.5010317198
 C          1.0721948527       -4.1382209638       -3.5911178292
 C          2.2209614695       -3.7656426574       -2.5992833955
 C          4.3672501345        4.3397841831       -4.0575956170
 C          3.2811463264        3.5816865957       -4.8873622548
 Br         1.1673242409       -5.2427048916        1.1155088137
 Br        -3.6324238792        1.7595235812       -2.8433070391
 Br        -0.1871263449        7.5982146568       -0.1848273204
 Br        -0.8877177378        1.9947201861        1.2087621839
 N         -3.1757518848       -2.5468636994        3.1483898129
 N         -4.8589770752       -1.9559745084        0.9935034701
 N          2.3845504124        0.3684970854        4.0315996404
 N         -0.1497071863       -3.6955303266       -3.0008475145
 N          3.0210127144        3.0966299201        3.1511033499
 N          2.1988525608       -2.3464006317       -2.4537313499
 N          3.6882401299        4.9269673167       -2.9514500697
 N          2.7706834985        2.5410078828       -4.0542052675
 H         -6.6365991665       -1.3527061685        4.9789392087
 H         -6.9020523220       -2.9137127805        5.7624104848
 H         -8.4103010881       -2.5969150630        3.7956639544
 H         -7.3244410831       -3.9720439637        3.5722383712
 H          5.8215753303        1.3592874802        6.0238771593
 H          5.0589839740        1.1389092430        7.6030414261
 H          3.6124908794        3.1067382139        7.2002002631
 H          5.3119563501        3.5618990835        7.0313312287
 H          2.5770501744       -5.6677448055       -5.3299770962
 H          2.3783504247       -7.2072650202       -4.4866991680
 H          4.4944511690       -6.0592305514       -3.8214411514
 H          3.3972678412       -6.2547307363       -2.4495485806
 H          6.0695918603        5.6118597588       -6.7856709182
 H          6.4218686942        4.1234307029       -5.9018487947
 H          5.0201765448        3.6246360903       -7.8759157346
 H          3.8048868522        4.7830819828       -7.3272303491
 H         -4.4712270254       -2.4362133218        5.4961532403
 H         -4.9448898624       -3.8667211803        4.5730990144
 H         -7.4100313988       -2.6034255637        1.5099392436
 H         -6.9220028223       -1.1690582601        2.4150766790
 H          2.8648854750        0.7573648868        6.5177113978
 H          4.0627344721       -0.3890578998        5.9103845088
 H          5.1475713745        3.3517545184        4.5675592911
 H          3.9480066711        4.4976754312        5.1716580931
 H          0.8557015077       -6.1322430243       -2.8464349455
 H          0.2566005073       -5.9011469639       -4.4929885668
 H          3.7408919145       -3.7063877518       -4.1055181655
 H          4.3475244735       -3.9714460619       -2.4684624960
 H          4.2473365158        6.1517120466       -5.1880413749
 H          5.7759236244        5.9285061838       -4.3330364989
 H          4.6524446132        2.2476840260       -5.8414301146
 H          3.1360774768        2.4784655368       -6.7157316854
 H         -0.0588974102       -0.2127464753        3.5955215201
 H         -2.0338277730       -3.5301987837       -1.2587930549
 H          3.5532187535        3.3109153562        0.6633053297
 H          2.3123635228        0.1373336760       -3.1763102326
 H         -1.3673308782       -3.9399521989        1.9340037253
 H         -4.5492325506       -0.1145535664       -0.7053128457
 H          2.8028147665       -2.9559229481        2.0035584467
 H         -1.5888972465       -0.1316762994       -3.8087870023
 H          0.3902211924        5.8003356636        2.0896224062
 H          0.1191512246       -0.6538505294        0.4147028985
 H          1.9102766287        6.3328466616       -1.8841735468
 H          0.2623845047        3.3145323654       -1.1667977405
 H         -2.4484986908       -0.6095670843        3.2333135386
 H         -3.6646198903       -3.5700210889        0.4780075790
 H          3.5592385083       -0.8375272164        2.8240829889
 H         -0.0932864765       -1.9211749656       -4.0635681744
 H          1.2637343132        4.1235944881        3.5297984086
 H          1.0276321867       -2.4698456510       -0.7515846118
 H          4.2633950975        3.4230312783       -1.6445538746
 H          1.2643446447        3.7489539871       -3.2973246256
 H         -4.6143666976       -1.0389760159        3.4407222482
 H         -5.2417617521       -3.7091094098        2.0896186509
 H          4.3944865501        0.9888507321        3.8773933293
 H          2.1854118317        2.7571522321        5.0571930447
 H          1.2806109272       -3.6123608210       -4.5389184799
 H          2.0018791126       -4.2802182152       -1.6499280817
 H          5.1154685519        3.5936950080       -3.7378068263
 H          2.5042986313        4.3199718155       -5.1473210414
 C         -2.4637931899       -6.8168995713        0.2444799706
 C         -3.7751908633       -7.5873668694        0.0905370022
 O         -2.6556538151       -5.6648558189        1.0495202147
 C         -3.1796294531       -6.0197837751        2.3215522861
 C         -4.4914795679       -6.7874804405        2.1596586944
 O         -4.3000962894       -7.9412427471        1.3591378460
 H         -2.1051805347       -6.4619617753       -0.7217743559
 H         -4.5066125716       -6.9680478971       -0.4497736634
 H         -2.4512795259       -6.6482820853        2.8535031097
 H         -5.2459025206       -6.1394327791        1.6885347433
 H         -3.6146478291       -8.5225552356       -0.4456045322
 H         -3.3284693980       -5.0814996349        2.8602122931
 H         -4.8571822933       -7.1419079141        3.1235426025
 H         -1.7058298730       -7.4633239646        0.7080880216