142
-211.12768557
 C         -4.1995232883       -6.9744299651        2.5346702632
 C         -2.9771122763       -7.8820297278        2.4335174320
 C         -5.7835120403        5.2308456594        1.0693462792
 C         -6.2340903107        5.0950473154       -0.3803335866
 C          6.3533906407        0.7484532740        5.0083566659
 C          5.4330493947        1.9600235169        5.1224229678
 C          5.5483216742        5.3997879286       -5.6445652898
 C          6.4202598375        4.2140721266       -5.2436253314
 C         -3.8064338725       -5.6008599440        3.0679535685
 C         -1.9079824036       -7.2458267775        1.5514333656
 C         -5.1014926539        3.9483709659        1.5277523876
 C         -5.0416251421        4.7743044631       -1.2722198608
 C          5.5931705011       -0.4526079251        4.4559328461
 C          4.8112475670        2.2913135313        3.7698725425
 C          4.1240272619        4.9404669542       -5.9354262949
 C          5.8291011200        3.5031086042       -4.0314975662
 C         -2.3762863114       -0.1774881556        1.9438207027
 C          2.3192801968       -3.0738622524        1.4965439680
 C         -0.9309232181        3.0561437732       -3.3889534168
 C          2.6190677454        1.2714751757       -0.8161195560
 C         -1.0611853757       -1.3239667674        3.6035424631
 C          1.2155160881       -3.8511321246       -0.5009367637
 C         -0.9453806029        1.0806083048        3.4170092503
 C          3.0618725426       -2.3014912918       -0.6593580165
 C         -2.2650996973        1.4859704859       -4.6365729608
 C          0.6921940300        0.0928616443        0.0216761965
 C         -0.1126223699        2.1835216427       -5.4807525963
 C          0.9836466076        0.3921412460       -2.3541130598
 C         -2.4610738124       -2.6438598247        2.0508439095
 C          0.4093233496       -4.6132725617        1.7138268968
 C         -2.3441594711        2.2986941666        1.8003378586
 C          4.1275454894       -1.3770558557        1.3471610853
 C         -3.1860346939        2.4274237496       -2.5590528098
 C          2.4090153056        0.7994348066        1.6168273219
 C          1.3217314939        3.7047657265       -4.1618841652
 C          2.9276314562        1.5806618641       -3.2636022024
 C         -1.9667159236       -1.3640021685        2.5410043192
 C          1.3370516369       -3.8504402836        0.8912721769
 C         -1.8759038031        1.0475371906        2.3802484689
 C          3.1778300873       -2.2893440341        0.7301685981
 C         -2.1031255773        2.3153008196       -3.5271342243
 C          1.8947607770        0.7612230908        0.2575840104
 C          0.0676110348        2.9915811813       -4.3546017554
 C          2.1778810760        1.0762045026       -2.1210527138
 C         -0.5709221876       -0.1052963990        4.0207520768
 C          2.0827421601       -3.0811316896       -1.2477950607
 C         -1.2707111138        1.4423694174       -5.5980134957
 C          0.2508232377       -0.0637316240       -1.2765652745
 C         -2.7510608231       -4.9575303841        2.1659112420
 C         -1.5067431281       -5.8764790860        2.0959497453
 C         -3.8941952000        3.6075390938        0.6407984850
 C         -4.3379649036        3.4842598331       -0.8253972697
 C          4.9922306116       -0.1285895615        3.0920337496
 C          4.0286319677        1.0965273136        3.2358432262
 C          3.5146526432        4.2433313763       -4.7215996662
 C          4.4075552794        3.0264328495       -4.3153208354
 Br         0.6535913502       -0.0502854292        5.4772891858
 Br         1.9165605303       -3.0557046317       -3.1527568486
 Br        -1.5094753436        0.3184533962       -7.1313484142
 Br        -1.3966204772       -0.9618634021       -1.5876611831
 N         -2.3262995229       -3.7075451631        2.7174717259
 N         -0.5639026238       -5.2486741294        1.2213236714
 N         -3.3832726553        2.3467140282        1.0871101301
 N          4.2090785284       -1.2151315176        2.6003162532
 N         -3.1880365430        3.3173698359       -1.6637291624
 N          3.5007578016        1.3540268988        1.9356843911
 N          2.2323667523        3.7110171228       -5.0406712043
 N          3.8302569069        2.4582414024       -3.1395677438
 H         -4.6515375846       -6.8625579999        1.5466432760
 H         -4.9427430155       -7.4219153751        3.1970026607
 H         -3.2647132099       -8.8489729824        2.0172517208
 H         -2.5680675963       -8.0533197246        3.4319381562
 H         -5.0868788765        6.0673820247        1.1584388730
 H         -6.6412189310        5.4345664923        1.7128719108
 H         -6.9745601779        4.2961190595       -0.4590545103
 H         -6.6996151119        6.0225635896       -0.7181941664
 H          7.1875035708        0.9860136291        4.3438194186
 H          6.7637715977        0.4994338518        5.9882523913
 H          5.9948653249        2.8218853062        5.4865442155
 H          4.6384171276        1.7450322166        5.8402895480
 H          5.9616093489        5.8851922593       -6.5303412443
 H          5.5349438293        6.1320987985       -4.8339876107
 H          7.4301158656        4.5552180927       -5.0092785629
 H          6.4866425230        3.5129209483       -6.0786679835
 H         -4.6783820011       -4.9445236538        3.1113685500
 H         -3.3979493006       -5.6873179493        4.0763592526
 H         -1.0213720930       -7.8816109125        1.5086805930
 H         -2.2803530564       -7.1183958559        0.5337617789
 H         -5.8027465129        3.1127843524        1.4840397202
 H         -4.7573717201        4.0443040137        2.5603055697
 H         -4.3153927363        5.5887514830       -1.2375132402
 H         -5.3611136947        4.6540549611       -2.3097202294
 H          4.7858602221       -0.7353241864        5.1329070857
 H          6.2615587902       -1.3092256852        4.3484876658
 H          5.5844021683        2.5562676493        3.0469484516
 H          4.1311398205        3.1401841270        3.8632838240
 H          4.1140914544        4.2436401615       -6.7750220465
 H          3.4951066344        5.7934868101       -6.1984935730
 H          5.8023405909        4.1750751096       -3.1721868844
 H          6.4387500064        2.6380102453       -3.7633975986
 H         -3.0907503445       -0.1831375247        1.1358603527
 H          2.4268642925       -3.0486345278        2.5697326112
 H         -0.8184472705        3.6807752506       -2.5166090118
 H          3.5421131638        1.7975216780       -0.6366307387
 H         -0.7649147885       -2.2481151903        4.0732350198
 H          0.4407998705       -4.4454686610       -0.9580039241
 H         -0.5409888130        2.0217489932        3.7590379367
 H          3.7171659576       -1.6942673727       -1.2655708328
 H         -3.1589290507        0.8912675650       -4.7470882099
 H          0.1191920098       -0.3060219953        0.8449290815
 H          0.6622769075        2.1499211390       -6.2295905155
 H          0.6388227416        0.2245006990       -3.3626816620
 H         -2.9412261291       -2.6214609756        1.0629249975
 H          0.5972662405       -4.5757544157        2.7962429959
 H         -1.7643285550        3.1976998871        2.0603788078
 H          4.7423430598       -0.7945281099        0.6450276844
 H         -4.0179670530        1.7205578478       -2.6874607811
 H          1.7996965280        0.2560003968        2.3549871495
 H          1.4359152567        4.2136159721       -3.1936637793
 H          2.6464216983        1.1576400972       -4.2380856094
 H         -3.1506864876       -4.8350485807        1.1441444907
 H         -1.1075876149       -5.9700281077        3.1211451240
 H         -3.1386859262        4.4087037287        0.7186548031
 H         -5.0331798085        2.6310284188       -0.9093685241
 H          5.7795730357        0.1634960580        2.3759724182
 H          3.2407863449        0.8005293954        3.9478839693
 H          3.4769606149        4.9260004488       -3.8547009231
 H          4.3913112278        2.3214434075       -5.1631082365
 C         -3.8170816261        1.0241907601        7.6114417359
 C         -3.7138646622        1.3024985343        6.1107656128
 O         -4.5719955490       -0.1509997261        7.8484305274
 C         -3.9971596906       -1.2581273506        7.1753776704
 C         -3.8981474158       -0.9806204422        5.6748780864
 O         -3.1385392781        0.1945160056        5.4374500327
 H         -4.3404245023        1.8324554672        8.1222825871
 H         -4.7138239026        1.5004106338        5.6992355846
 H         -2.9937058085       -1.4541193424        7.5800968470
 H         -4.9053226318       -0.8532261018        5.2535375833
 H         -3.0594592241        2.1526871129        5.9175499626
 H         -4.6499752825       -2.1084263056        7.3717480597
 H         -3.3817216772       -1.7893215172        5.1577650719
 H         -2.8082396808        0.9055814482        8.0327792486