142
-211.13371064
 C          2.3311377023       -6.7569907612        2.9545451195
 C          1.5668920027       -6.9572783679        1.6498801468
 C         -3.1754506472        4.5343674851        5.6909635575
 C         -4.0082437442        4.3809139129        4.4224042050
 C         -3.8851252978        5.3778831995       -3.2446089848
 C         -4.2385018352        4.6800497469       -4.5539775287
 C          7.3631328277       -1.0846530413       -2.4322914316
 C          6.9674228716       -1.6597977259       -3.7883443470
 C          2.8924000158       -5.3417155877        3.0278686942
 C          0.4461225711       -5.9320208539        1.5270723829
 C         -2.0560921178        3.5000065552        5.7212040563
 C         -3.1253885988        4.5157756541        3.1868689855
 C         -3.9158617197        4.3856889871       -2.0876636736
 C         -3.2783692753        3.5257738728       -4.8176598332
 C          6.4399816567        0.0672700370       -2.0543145978
 C          5.5163637187       -2.1257078784       -3.7629595664
 C          1.4625750371        0.3751155758        3.8417303786
 C         -1.1164907202       -0.5239065973       -0.0616832385
 C          1.3718033112        1.7366780214        0.3377359080
 C         -0.1488429606       -0.3067144433       -3.6972095634
 C          3.5153494691       -0.3923054550        2.8434133750
 C         -2.2513367342       -1.7422949215        1.6765867922
 C          3.1234036154        1.9735641251        3.1436475557
 C         -3.2284489775        0.2772419074        0.7739151107
 C          0.6721055895        3.9964225558       -0.1156653498
 C         -1.7575823083       -1.9556561343       -2.9874953334
 C          2.5095304918        3.0231211082       -1.3491904382
 C          0.5998558084       -2.4970781942       -3.0319126252
 C          1.7782005865       -2.0416167219        3.4878419928
 C         -0.0899127470       -2.5899410216        0.8105838692
 C          0.9620726631        2.7915976183        4.0043542965
 C         -2.0681450701        1.5296956333       -1.0240270786
 C         -0.4963492871        2.6800332899        1.6303332493
 C         -2.5357198119        0.3223271880       -3.5046817930
 C          3.2536000879        0.7067647823       -0.8807843813
 C          2.2692772954       -0.7837977308       -3.6797892614
 C          2.2665302156       -0.6713000955        3.4051071427
 C         -1.1672069439       -1.6098123259        0.8071631461
 C          1.8737198528        1.6993352505        3.6975602455
 C         -2.1404027448        0.4195491903       -0.0862689446
 C          0.5218964236        2.8086802351        0.5992413328
 C         -1.4701099079       -0.6663141515       -3.4343124930
 C          2.3697408108        1.8364577084       -0.6270944509
 C          0.8890361182       -1.2068111563       -3.4845559387
 C          3.9240102432        0.9215426371        2.7345494279
 C         -3.2574698340       -0.7955610653        1.6456683478
 C          1.6574339173        4.0774178963       -1.0822549059
 C         -0.7153296281       -2.8465059118       -2.8041815480
 C          1.7775417270       -4.3028229156        2.9152198672
 C          0.9966172522       -4.5062058223        1.5905747581
 C         -1.1520942014        3.6318954190        4.4980619530
 C         -2.0082178136        3.4772962763        3.1975657587
 C         -2.9526009090        3.2285509137       -2.3325338849
 C         -3.3097081668        2.5122362558       -3.6762641946
 C          4.9799346333       -0.3879033748       -2.0157953086
 C          4.5770060107       -0.9789886515       -3.3917900750
 Br         5.6302205014        1.3064540579        1.9647224289
 Br        -4.7329018128       -0.9708818989        2.8464957039
 Br         1.8377995794        5.6944925887       -2.0838427580
 Br        -1.1124435332       -4.6018118054       -2.1813386269
 N          2.3490299282       -2.9907705591        2.8814924879
 N         -0.0935716416       -3.5838142711        1.5870344172
 N         -0.1984931832        2.5760238159        4.4613173070
 N         -3.0667962897        2.2580262857       -1.2915280726
 N         -1.1336585641        3.6732221451        2.0861111732
 N         -2.3103155520        1.5153086456       -3.8632098530
 N          4.1463284837        0.7452893295       -1.7707937210
 N          3.2409879285       -1.4777743487       -3.2690120017
 H          1.6600618358       -6.9261820766        3.7995737406
 H          3.1490076389       -7.4760733176        3.0243816608
 H          1.1422860943       -7.9616160554        1.6139511361
 H          2.2509602066       -6.8503469337        0.8053083893
 H         -2.7442941125        5.5375302369        5.7251073228
 H         -3.8082816787        4.4090907493        6.5709731632
 H         -4.4894001481        3.4002604821        4.4193517181
 H         -4.7908603724        5.1407073205        4.3947776014
 H         -2.8865257287        5.8136810368       -3.3224174393
 H         -4.5914996569        6.1862127837       -3.0491465987
 H         -4.1878782363        5.3896801682       -5.3813184797
 H         -5.2602023225        4.2973107485       -4.4991983020
 H          8.3932240901       -0.7262905577       -2.4624499010
 H          7.3001384672       -1.8656284886       -1.6714230279
 H          7.6146416099       -2.5009363943       -4.0423462982
 H          7.0903878382       -0.8948561342       -4.5582986315
 H          3.4184255743       -5.1874939002        3.9722632121
 H          3.6021041964       -5.1744084674        2.2159353673
 H         -0.0843036769       -6.0574525855        0.5812073596
 H         -0.2731348135       -6.0583991245        2.3376647949
 H         -2.4731385362        2.4917003230        5.7342481104
 H         -1.4460629420        3.6246041175        6.6182512680
 H         -2.6744668164        5.5086741660        3.1480081084
 H         -3.7167503891        4.3775919959        2.2800561221
 H         -4.9203540570        3.9781734307       -1.9626767928
 H         -3.6325906837        4.8792738587       -1.1563214233
 H         -2.2577469060        3.8983677956       -4.9193571582
 H         -3.5440623371        3.0126789612       -5.7442139338
 H          6.5273445621        0.8764357700       -2.7810192501
 H          6.7059185638        0.4651790814       -1.0731236158
 H          5.3892742982       -2.9248248898       -3.0306723014
 H          5.2225528960       -2.5144626513       -4.7401800146
 H          0.4918165738        0.1857963099        4.2729260909
 H         -0.2785891878       -0.4133909829       -0.7354225277
 H          1.2581946506        0.8208427063        0.9004919064
 H          0.0502898105        0.6967933264       -4.0403285719
 H          4.1320645802       -1.2099595439        2.5061226171
 H         -2.2804708205       -2.5838215300        2.3497324084
 H          3.4561478685        2.9938125761        3.0255673542
 H         -4.0188140408        1.0096916093        0.7435242706
 H          0.0121755654        4.8220312470        0.0971519756
 H         -2.7749106657       -2.2495899259       -2.7743913511
 H          3.2833776383        3.0900231557       -2.0967840252
 H          1.4112440155       -3.1885735184       -2.8689176421
 H          0.8670142861       -2.1867148904        4.0846882544
 H          0.7222038705       -2.4052929361        0.0895479956
 H          1.3215595768        3.8029599557        3.7647461473
 H         -1.0853000351        1.6846709236       -1.4927317569
 H         -0.6677776579        1.6562785664        1.9939317562
 H         -3.5287468621       -0.0198677030       -3.1793475714
 H          3.0915634395       -0.1764318524       -0.2425892318
 H          2.4053534264        0.1873721927       -4.1756703486
 H          1.0561181803       -4.4123855354        3.7425855906
 H          1.6934412186       -4.3221332983        0.7541821713
 H         -0.6762172215        4.6273188383        4.4637898884
 H         -2.4218659778        2.4555540325        3.2124273059
 H         -1.9175177878        3.5937415751       -2.4357970385
 H         -4.3176856148        2.0769904777       -3.5618774216
 H          4.8388822024       -1.1745813190       -1.2537622630
 H          4.6424865910       -0.1639543512       -4.1323955301
 C         -4.9961640324       -3.3014082769       -0.6988092802
 C         -4.8257395067       -4.7166810097       -0.1456241617
 O         -4.6239567337       -3.2488889428       -2.0669545762
 C         -5.3762335344       -4.1834590058       -2.8273328799
 C         -5.2022697956       -5.5958694358       -2.2676835665
 O         -5.5876961138       -5.6385883301       -0.9045393898
 H         -4.3425362381       -2.6004186723       -0.1799742101
 H         -3.7639166613       -5.0000674209       -0.1790014896
 H         -6.4382943970       -3.9019093216       -2.7992013574
 H         -4.1512545626       -5.9036512611       -2.3621604052
 H         -5.1979299908       -4.7791883970        0.8768797091
 H         -5.0013443336       -4.1199748884       -3.8492304292
 H         -5.8470739475       -6.3014812338       -2.7912615113
 H         -6.0439114046       -2.9861076701       -0.5938738016