142
-211.12743187
 C          3.4263075598       -4.2769550741        7.3306647498
 C          4.7761666651       -4.5110899839        6.6588644351
 C         -6.6706981455        2.1438086794        3.6806767163
 C         -7.3627444742        0.9349821654        3.0622347022
 C          5.3132866335        6.0447863727       -0.9094357668
 C          3.9300181535        6.5936663749       -0.5733945833
 C         -1.9582684164        1.1178942657       -8.6762624214
 C         -0.4399416467        0.9839421731       -8.6145404907
 C          2.8907968837       -2.8896546232        6.9930060580
 C          4.6624268725       -4.3286079578        5.1490716287
 C         -5.2023883329        1.8310727916        3.9377598528
 C         -6.6635840884        0.5352559797        1.7692742654
 C          5.4838519428        4.6388675901       -0.3438734615
 C          2.8403350770        5.6658348126       -1.1006224080
 C         -2.6195628632        0.1535329976       -7.6979516092
 C          0.0601977714        1.2327886556       -7.1959943147
 C         -0.4546621337        0.3630190844        3.6690942598
 C          4.2812785374       -0.1997799378        0.8920600937
 C         -3.6463583183       -0.7802905313       -1.8911499528
 C          0.6375510428        1.0756214480       -2.1545503539
 C          1.7512616152        1.1959788494        4.1648208072
 C          3.4617504825       -2.4517501531        0.6279389483
 C          0.0919415420        2.6620732107        3.1989039138
 C          3.4448033971       -0.9271050094       -1.2452824498
 C         -3.7911449699       -3.0667967518       -1.1500403859
 C          0.4992410404        0.2948704418        0.1202559495
 C         -3.2301189993       -2.5745822794       -3.4467087597
 C         -0.2823255572       -1.1026156289       -1.6832150795
 C          1.2489730630       -1.1925023027        4.5568289754
 C          4.2795545865       -1.7061425989        2.8426338821
 C         -2.1938485628        1.8790593517        2.7422659483
 C          4.1459937963        1.4089576639       -0.9985045933
 C         -4.3229372720       -1.2826059149        0.4509380087
 C          1.6245281040        2.4232994742       -0.3096273485
 C         -2.9649666484       -0.2325084060       -4.1963064975
 C         -0.1681981098       -0.3640443996       -4.0177341356
 C          0.8358980022        0.1407599221        4.1382194775
 C          4.0186874703       -1.4541119058        1.4326134692
 C         -0.8355331821        1.6205845650        3.2035843088
 C          3.9879564540        0.0748389393       -0.4416152811
 C         -3.8976978783       -1.7025104661       -0.8772964837
 C          0.8760218120        1.2767336513       -0.7975725752
 C         -3.3078944095       -1.2067390791       -3.1713289377
 C          0.0726794996       -0.1142557135       -2.6028670473
 C          1.3645814613        2.4326459877        3.6912901107
 C          3.1905756707       -2.1699822395       -0.6947497953
 C         -3.4674917586       -3.4783476049       -2.4308940931
 C         -0.0856194275       -0.8683515411       -0.3370698781
 C          2.7568924613       -2.7202447439        5.4778332615
 C          4.1400390112       -2.9328995842        4.8150574449
 C         -4.4800546428        1.4320018906        2.6416174153
 C         -5.1794959799        0.2190657863        2.0092226644
 C          4.4089276542        3.7048226034       -0.8902559653
 C          2.9986824949        4.2677636668       -0.5125972056
 C         -2.1397616263        0.4075988847       -6.2712155928
 C         -0.5844733366        0.2616087892       -6.2113451104
 Br         2.6267004906        3.8702177098        3.6990345889
 Br         2.4136254447       -3.5198737724       -1.8037237645
 Br        -3.3434263894       -5.3537704587       -2.8005636224
 Br        -0.5978820612       -2.1991062231        0.9207764901
 N          2.3375455369       -1.3892935633        5.1646089082
 N          3.9618951213       -2.7923324224        3.4020043430
 N         -3.1376153015        1.0801322442        2.9971252753
 N          4.5089953680        2.4056032170       -0.3073503660
 N         -4.6041653383       -0.0826242619        0.7295659364
 N          2.0431393252        3.3567171077       -1.0543761766
 N         -2.6707649445       -0.5695237974       -5.3802880341
 N         -0.1827983554        0.5663082690       -4.8750813177
 H          2.7146959045       -5.0319259293        6.9890455337
 H          3.5266042021       -4.3732922671        8.4132546876
 H          5.1316152922       -5.5192762452        6.8784918757
 H          5.5070721611       -3.8024188983        7.0551994787
 H         -6.7488937232        2.9965646420        3.0026187499
 H         -7.1536674832        2.4139293197        4.6214322745
 H         -7.3356651651        0.0999582976        3.7655720538
 H         -8.4084160546        1.1661792713        2.8516238964
 H          5.4403578758        6.0167518320       -1.9942308071
 H          6.0833217316        6.6985086933       -0.4967917745
 H          3.8063436176        7.5860835755       -1.0102021714
 H          3.8307102679        6.6856722050        0.5104958366
 H         -2.3110973926        0.9086894896       -9.6875516074
 H         -2.2436568107        2.1419111595       -8.4244546545
 H          0.0260794394        1.6979881495       -9.2957330629
 H         -0.1504006739       -0.0210622352       -8.9299846537
 H          1.9111003881       -2.7370187633        7.4510998550
 H          3.5646908749       -2.1193918183        7.3721191841
 H          5.6363731514       -4.4636644448        4.6743684606
 H          3.9770401415       -5.0654200460        4.7272193690
 H         -5.1111859750        1.0074926332        4.6485177366
 H         -4.6946224236        2.6996471589        4.3632278772
 H         -6.7271468524        1.3455493829        1.0405994876
 H         -7.1402560013       -0.3457734666        1.3337448369
 H          5.4101022776        4.6554108357        0.7443698411
 H          6.4635050558        4.2374994165       -0.6107243949
 H          2.8892606827        5.5969335155       -2.1884725997
 H          1.8548909654        6.0497550228       -0.8298760641
 H         -2.3837845026       -0.8781533021       -7.9637828607
 H         -3.7050169128        0.2687967592       -7.7253135936
 H         -0.1767199381        2.2507988851       -6.8825113121
 H          1.1438824198        1.1089030876       -7.1478781127
 H         -1.1815752516       -0.4335344262        3.6519927381
 H          4.7029047415        0.5892444240        1.4949960210
 H         -3.7208291257        0.2712641073       -1.6634285826
 H          0.9207729315        1.8340067089       -2.8659814293
 H          2.7434965111        1.0156139053        4.5450338907
 H          3.2496042932       -3.4154319924        1.0622708969
 H         -0.1873948695        3.6354144211        2.8245657781
 H          3.2098931051       -0.7272850726       -2.2799396131
 H         -3.9641538207       -3.7932077519       -0.3708755493
 H          0.6759150087        0.4385432257        1.1752687148
 H         -2.9772774243       -2.8939554711       -4.4448959351
 H         -0.7034264427       -2.0362670722       -2.0222659353
 H          0.5653065433       -2.0087141023        4.2857801814
 H          4.7482549320       -0.8780369300        3.3925700809
 H         -2.3463049465        2.8186246006        2.1942779126
 H          3.8812159487        1.5063370041       -2.0619534183
 H         -4.4322385764       -2.0911767573        1.1873426942
 H          1.8617605439        2.3927294301        0.7645847611
 H         -2.9487365554        0.8153859254       -3.8656579420
 H         -0.3489102973       -1.4141604167       -4.2862964525
 H          2.0564121725       -3.4725674020        5.0750622888
 H          4.8188848789       -2.1599282115        5.2156832909
 H         -4.5053394962        2.2755479316        1.9321649277
 H         -5.0892871850       -0.6336246553        2.7042935876
 H          4.4524990893        3.6607698272       -1.9921885418
 H          2.9527335999        4.3037376099        0.5884558886
 H         -2.3847932922        1.4358961156       -5.9522704645
 H         -0.3516359419       -0.7821194322       -6.4804262043
 C         -3.8266793493        3.3127675621       -0.7254313703
 C         -3.4723547233        3.3358780330       -2.2118867499
 O         -2.8156174095        3.9543416294        0.0372043217
 C         -2.6177976630        5.2847420724       -0.4153538806
 C         -2.2706567445        5.3056504507       -1.9043254453
 O         -3.2857247385        4.6656110095       -2.6598609725
 H         -3.8953704099        2.2898701850       -0.3506357501
 H         -2.5488832753        2.7606596904       -2.3774836862
 H         -3.5332349029        5.8688357941       -0.2421988251
 H         -1.3133209230        4.7917090065       -2.0681338631
 H         -4.2872413079        2.9243659428       -2.8087263167
 H         -1.7998332686        5.6929704416        0.1784188954
 H         -2.2138411453        6.3290280419       -2.2749325842
 H         -4.7829582792        3.8339547057       -0.5721046710