142
-211.12766604
 C          4.0277815651       -6.6245447218        2.6392661920
 C          3.6510389970       -6.8736977060        1.1824105457
 C         -4.8142678097        2.5891763348        4.4892448876
 C         -5.2906810614        2.3439323940        3.0610889261
 C         -3.7022493188        4.0838817042       -4.4117598030
 C         -3.5832625762        3.4497414353       -5.7939135860
 C          8.2767761705        0.3064346059       -1.1287807884
 C          8.3519762644       -0.2210020464       -2.5579608770
 C          4.1462898126       -5.1287689588        2.9079975352
 C          2.3458069117       -6.1646064859        0.8420806922
 C         -3.4985908077        1.8626984112        4.7453866107
 C         -4.2295444637        2.7890011003        2.0608092631
 C         -3.7352871536        3.0072805307       -3.3327984884
 C         -2.3364865876        2.5761222671       -5.8743427261
 C          7.0376052822        1.1745875901       -0.9472590646
 C          7.0926508233       -1.0093098781       -2.8989262357
 C          1.0573855559       -0.0937564421        3.6111722103
 C         -0.2564011769       -1.2364992988       -0.8943679778
 C          1.3267823713        1.4135578907        0.2469978624
 C          1.3006412106       -0.5399265328       -4.1701399953
 C          3.4056013955       -0.2006068985        3.0858727087
 C         -1.3686086639       -2.8665211516        0.4842388556
 C          2.3244295757        1.9408955560        3.3734486582
 C         -2.6361223652       -1.0889352588       -0.5555529571
 C          0.1955360601        3.4648767752       -0.3125657149
 C          0.0204370425       -2.5664609904       -3.9337080873
 C          2.4396147710        3.0570996288       -1.1150155858
 C          2.3810629677       -2.5570441054       -3.4184148181
 C          2.0939335275       -2.2983321120        3.2405964261
 C          1.0793175624       -3.0371004934        0.1305623498
 C         -0.1078488482        2.0856591122        3.7391376103
 C         -1.4933698246        0.5876874689       -1.9825622911
 C         -0.9514515410        1.7767094103        1.0964115548
 C         -1.1454041371       -0.4816736373       -4.5400926071
 C          3.6201570219        0.9564087879       -0.5360639421
 C          3.6903706477       -0.4579346413       -3.5739449444
 C          2.1916294418       -0.8474273851        3.3323522456
 C         -0.1981361605       -2.3756152397       -0.0971892042
 C          1.1102335373        1.2993619165        3.6145870722
 C         -1.4669982283       -0.5888294350       -1.1274995676
 C          0.1984701069        2.2259862266        0.3272232796
 C          0.0808474067       -1.2102010629       -4.2513079330
 C          2.4502992262        1.8212836005       -0.4656227122
 C          2.4467756870       -1.1987769127       -3.7404714765
 C          3.4512314657        1.1782023785        3.1222160228
 C         -2.5625096690       -2.2130236630        0.2463337162
 C          1.3134970836        3.8528388014       -1.0277938086
 C          1.1740118705       -3.2163391643       -3.5318172851
 C          2.8405412541       -4.4069874396        2.5775117646
 C          2.4563934466       -4.6600224560        1.0968952510
 C         -2.4218701713        2.3155929410        3.7627655306
 C         -2.9124521417        2.0579444052        2.2996393992
 C         -2.4853068691        2.1354564880       -3.3941588377
 C         -2.3635987601        1.4817911681       -4.8103746308
 C          5.7650690256        0.3913889453       -1.2764801079
 C          5.8426905447       -0.1469127628       -2.7284473800
 Br         5.1083437097        2.0653422879        2.7788009168
 Br        -4.1609910645       -2.8734828468        1.0583535552
 Br         1.2936895687        5.5367217337       -1.9308368832
 Br         1.0801158856       -5.0720498871       -3.0865451607
 N          3.0196371304       -2.9960560689        2.7399943428
 N          1.1836248864       -4.0532994508        0.8701273821
 N         -1.2369016938        1.5418383675        3.9174119578
 N         -2.5667540967        1.0745955771       -2.4417090233
 N         -1.9015264404        2.5474854392        1.4180217884
 N         -1.1382681901        0.7571573781       -4.7996070054
 N          4.6438880757        1.2724835330       -1.2012831742
 N          4.6763568736       -0.9456621089       -2.9539777193
 H          3.2625335283       -7.0515171563        3.2912980213
 H          4.9768806759       -7.1114224702        2.8696703204
 H          3.5378146702       -7.9437163528        1.0016381420
 H          4.4460331802       -6.5042494663        0.5309583942
 H         -4.6737585394        3.6608533498        4.6475906973
 H         -5.5647373462        2.2385064363        5.1992722888
 H         -5.4952814393        1.2799280587        2.9232108886
 H         -6.2151478635        2.8928629628        2.8763445293
 H         -2.8490308789        4.7438488785       -4.2394624882
 H         -4.6108670154        4.6851930259       -4.3535439469
 H         -3.5309855247        4.2267345107       -6.5582254582
 H         -4.4675414121        2.8398015664       -5.9925569643
 H          9.1661929649        0.8949736957       -0.8985291045
 H          8.2381789265       -0.5328938966       -0.4309822041
 H          9.2259844100       -0.8639347619       -2.6749027031
 H          8.4547650005        0.6173577175       -3.2505377651
 H          4.3895683087       -4.9470697506        3.9568833725
 H          4.9419559436       -4.6974094327        2.2982107885
 H          2.0862966299       -6.3225456287       -0.2064388266
 H          1.5313324139       -6.5569551186        1.4529226415
 H         -3.6336567684        0.7853324412        4.6372021671
 H         -3.1468873307        2.0584032959        5.7604136258
 H         -4.0504624981        3.8618203991        2.1481859982
 H         -4.5588946783        2.5835599463        1.0407449376
 H         -4.6103839353        2.3679251029       -3.4597796654
 H         -3.7905178619        3.4629227439       -2.3425397693
 H         -1.4403169334        3.1805183338       -5.7248725121
 H         -2.2650238717        2.1036848985       -6.8562172064
 H          7.0847452019        2.0437738603       -1.6051102853
 H          6.9691608107        1.5344000835        0.0811214261
 H          7.0029058106       -1.8787648220       -2.2454869548
 H          7.1325143900       -1.3657082182       -3.9303047922
 H          0.1075194933       -0.5700658022        3.7984968188
 H          0.6462877062       -0.8522309704       -1.3477882663
 H          1.3298074587        0.4587820221        0.7535112929
 H          1.3249597747        0.5097750821       -4.4186727673
 H          4.2799606067       -0.7934607921        2.8700580626
 H         -1.3138056893       -3.7476196481        1.1030465622
 H          2.3808431782        3.0190338584        3.3718036517
 H         -3.5695082153       -0.5841385415       -0.7460404832
 H         -0.6805395968        4.0890669051       -0.2404104542
 H         -0.9170124306       -3.0989600964       -3.9906000233
 H          3.3135902701        3.3636190134       -1.6667667553
 H          3.2752345398       -3.0596802981       -3.0861855895
 H          1.1535010444       -2.7372732712        3.6014586980
 H          1.9431242536       -2.5907460773       -0.3875472151
 H          0.0063397262        3.1722996025        3.6127123831
 H         -0.5083664018        1.0201301075       -2.2121354879
 H         -0.9322119460        0.7166090852        1.3892258270
 H         -2.0778882419       -1.0600786310       -4.4644557931
 H          3.5489199775        0.0141524282        0.0302996321
 H          3.7001447134        0.5583125268       -3.9916520631
 H          2.0145470791       -4.7879209501        3.2017397232
 H          3.2421232092       -4.2163959070        0.4600739028
 H         -2.2290197320        3.3981224117        3.8604717257
 H         -3.0443522560        0.9681065055        2.1994147386
 H         -1.5764388634        2.7421399220       -3.2485827379
 H         -3.2380192879        0.8217049689       -4.9457481106
 H          5.6553497534       -0.4726999228       -0.5975179878
 H          5.8756120137        0.7262798906       -3.4018667058
 C        -10.6236218980        2.5193442644        3.4706504088
 C         -9.8800112991        1.6501545931        4.4869196762
 O        -11.5086692351        1.7312375746        2.6923722315
 C        -12.4256265730        1.0402448616        3.5239301848
 C        -11.6810974978        0.1702480935        4.5387053441
 O        -10.7983126217        0.9598070232        5.3180758385
 H         -9.9293678817        2.9798508149        2.7678713314
 H         -9.2461321543        0.9244290661        3.9574959180
 H        -13.0582996667        1.7657775480        4.0556087433
 H        -11.1096376983       -0.6055228222        4.0089559825
 H         -9.2706997070        2.2632040731        5.1510192774
 H        -13.0379361219        0.4288759527        2.8609567819
 H        -12.3759643625       -0.2928264156        5.2393693469
 H        -11.1932688652        3.2972682248        3.9994584253