142
-211.12664337
 C          1.1527471121       -7.3494562294        1.4125068341
 C          0.9778941509       -7.3143342681       -0.1022708981
 C         -5.5631397486        3.4255666774        3.4551153185
 C         -5.7972421634        3.5221575253        1.9511182569
 C         -2.7311467276        5.8482788119       -4.5182230036
 C         -2.4823813242        5.4403863584       -5.9666134006
 C          7.7118261674       -0.7252760059       -0.5359402268
 C          7.9056887256       -1.0517596385       -2.0131640018
 C          1.5635331660       -5.9762028125        1.9312340394
 C         -0.0545439034       -6.2640623088       -0.4934729316
 C         -4.5005009939        2.3764797809        3.7615999985
 C         -4.4962667853        3.8573340287        1.2307893747
 C         -3.1627785716        4.6414481072       -3.6931219880
 C         -1.4244984160        4.3449542314       -6.0362225082
 C          6.6424912901        0.3467570931       -0.3648978484
 C          6.5894942759       -1.5081848666       -2.6318943339
 C         -0.3668089286       -0.4480965366        2.9999440658
 C         -1.1350244982       -0.6285594748       -1.6562581169
 C          0.9331211179        1.5872176222        0.0419986384
 C          1.2364664165        0.3186998052       -4.4860514330
 C          1.9498629701       -1.0755739780        2.8016768520
 C         -2.8125480297       -2.1498902185       -0.8392291830
 C          1.3517504027        1.2130633541        3.2974069713
 C         -3.4545718965        0.0196260260       -1.6906819345
 C          0.3261674854        3.8992267488       -0.2548081358
 C         -0.4080299112       -1.4171710188       -4.7758559846
 C          2.5643371235        3.1539360093       -0.7829561687
 C          1.8029761771       -1.9639203784       -3.9676463768
 C          0.1859510421       -2.7780691856        2.4229622384
 C         -0.4338535052       -2.8413643734       -0.8203094634
 C         -1.0112562633        1.9163139429        3.3383024512
 C         -1.7344857820        1.5888423845       -2.5401746125
 C         -1.3577042643        2.2934288559        0.5989898986
 C         -1.0660974143        0.9281102013       -5.1561316685
 C          3.2105112543        0.7840305120       -0.4631480553
 C          3.4815977937       -0.1759716489       -3.5997229441
 C          0.5964022321       -1.4215635261        2.7619490955
 C         -1.4733301147       -1.8630506532       -1.1098221018
 C          0.0003323421        0.8734558366        3.2494886377
 C         -2.1164816958        0.3151111151       -1.9492823921
 C         -0.0195544623        2.6004490645        0.1168700680
 C         -0.0549716282       -0.0698903294       -4.8394221128
 C          2.2257436078        1.8551867829       -0.3985868563
 C          2.1632380387       -0.6153984559       -4.0381828006
 C          2.3012125374        0.2299711938        3.0796354922
 C         -3.7756809959       -1.2034405125       -1.1316524224
 C          1.6088677903        4.1489154351       -0.7064463377
 C          0.5304722862       -2.3396941548       -4.3477133642
 C          0.5316205864       -4.9146551026        1.5525504719
 C          0.3515736215       -4.8787169309        0.0124815330
 C         -3.1841887600        2.7061833268        3.0621154213
 C         -3.4239107622        2.8115161888        1.5196045458
 C         -2.1119328864        3.5367439979       -3.7439561709
 C         -1.8465514389        3.1201342494       -5.2288290395
 C          5.3127863595       -0.0994860973       -0.9753337780
 C          5.5095381473       -0.4384592838       -2.4762646739
 Br         4.1515605287        0.7068901131        3.1321679383
 Br        -5.6071782567       -1.5908903373       -0.7471273719
 Br         2.0669044363        5.9222269873       -1.2518937288
 Br         0.0333211055       -4.1827230987       -4.2507937222
 N          1.0005429729       -3.6254462869        1.9614606083
 N         -0.6939923642       -3.9517041828       -0.2816099080
 N         -2.2447994184        1.6511614838        3.2363967865
 N         -2.5789416363        2.3766783083       -3.0563773195
 N         -2.1851210081        3.1940246521        0.9222666763
 N         -0.7931116048        2.1640614096       -5.1778464505
 N          4.3796271560        0.9782172311       -0.8947089710
 N          4.2636753078       -0.9416083282       -2.9697865908
 H          0.2123454131       -7.6486002426        1.8807388603
 H          1.9133871636       -8.0829666771        1.6850980778
 H          0.6547661539       -8.2910960915       -0.4656373409
 H          1.9334822089       -7.0782401029       -0.5754185180
 H         -5.2368243228        4.3958696394        3.8365024066
 H         -6.4920222283        3.1590034013        3.9617612102
 H         -6.1823375764        2.5694047570        1.5807784240
 H         -6.5399611759        4.2922196525        1.7368460992
 H         -1.8154765065        6.2681262740       -4.0957988497
 H         -3.5059729468        6.6152190120       -4.4729088784
 H         -2.1494578353        6.3029222002       -6.5460891618
 H         -3.4128364188        5.0757376284       -6.4079276008
 H          8.6491171674       -0.3720169982       -0.1033102671
 H          7.4114111144       -1.6272362546        0.0016695332
 H          8.6534922225       -1.8381525367       -2.1284369281
 H          8.2658618557       -0.1641500299       -2.5381100086
 H          1.6640579777       -5.9930033004        3.0184051111
 H          2.5268315790       -5.6860092818        1.5084534794
 H         -0.1625910238       -6.2187759108       -1.5788415499
 H         -1.0277901144       -6.5125690059       -0.0674713415
 H         -4.8323632450        1.3928038117        3.4253521854
 H         -4.3178900997        2.3216447436        4.8367753240
 H         -4.1238141850        4.8314772067        1.5518657701
 H         -4.6583097905        3.8959373979        0.1521562037
 H         -4.1043723621        4.2396879858       -4.0708668410
 H         -3.3110634385        4.9277078886       -2.6504074701
 H         -0.4760771333        4.7095954002       -5.6383730494
 H         -1.2605869515        4.0382622410       -7.0713278110
 H          6.9513498345        1.2711569002       -0.8553775202
 H          6.4829041034        0.5630945803        0.6932294006
 H          6.2412201704       -2.4216766932       -2.1469634723
 H          6.7199979101       -1.7197681772       -3.6951731841
 H         -1.4180739107       -0.6887406818        2.9669443711
 H         -0.0999272555       -0.3990744947       -1.8665665354
 H          0.6638173670        0.5838078158        0.3402120625
 H          1.4880647186        1.3664455443       -4.5418784374
 H          2.6901895211       -1.8364223666        2.6127592012
 H         -3.0643827001       -3.1070750198       -0.4120090267
 H          1.6520973707        2.2320187136        3.4899604867
 H         -4.2072265784        0.7544590937       -1.9270809094
 H         -0.4171666818        4.6773227828       -0.1884656875
 H         -1.4042948739       -1.7336769022       -5.0457991821
 H          3.5668358636        3.3505137605       -1.1272051281
 H          2.5277553980       -2.6809335628       -3.6165621237
 H         -0.8801016978       -3.0025383422        2.5669090167
 H          0.5886138220       -2.5481831914       -1.1061788170
 H         -0.6370566702        2.9450760020        3.4438423491
 H         -0.6587416255        1.8161590864       -2.5135670966
 H         -1.5976668426        1.2225076682        0.6697544783
 H         -2.0839497299        0.5471991512       -5.3251290180
 H          2.8673909411       -0.2003243388       -0.1074867298
 H          3.7355782671        0.8684791200       -3.8279404728
 H         -0.4519348310       -5.1497395137        1.9933646048
 H          1.3127539286       -4.5695046828       -0.4343875292
 H         -2.7890564867        3.6793184716        3.4017420273
 H         -3.7469502640        1.8130659645        1.1815624918
 H         -1.1493369687        3.8902362678       -3.3387460410
 H         -2.7835813700        2.6905608376       -5.6233707557
 H          4.9384213073       -1.0065097365       -0.4690375598
 H          5.8051968636        0.4931801862       -2.9877373718
 C         -2.8344003536       -2.9893823374       11.4777095266
 C         -1.4512505897       -2.3357516857       11.4521944096
 O         -3.4692484439       -2.8607956406       10.2164604308
 C         -2.6688133023       -3.4300786034        9.1945772790
 C         -1.2859018153       -2.7757004928        9.1681461573
 O         -0.6502953028       -2.9031855098       10.4286120589
 H         -3.4857312641       -2.4956906163       12.1990001529
 H         -1.5581206057       -1.2552751597       11.2778956978
 H         -2.5608183183       -4.5100982492        9.3710582184
 H         -1.3880197754       -1.7105961870        8.9135472585
 H         -0.9196161763       -2.5107843444       12.3875177075
 H         -3.1999209969       -3.2570863598        8.2584839783
 H         -0.6342701021       -3.2687221584        8.4464398638
 H         -2.7331425541       -4.0545541629       11.7312953695