142
-211.12922418
 C          4.1247577435       -6.5226306520        2.8151096714
 C          3.6402213089       -6.8370482836        1.4033967726
 C         -4.6997168804        2.5919318189        4.7360299112
 C         -5.2246775599        2.2478939818        3.3459571900
 C         -4.1081016576        3.8127475752       -4.2248915222
 C         -4.0734667240        3.1093514315       -5.5779468922
 C          8.0971744253        0.1301362698       -1.5340591050
 C          8.0720228484       -0.4559430579       -2.9419909923
 C          4.2584525089       -5.0162665088        3.0070419590
 C          2.3115496277       -6.1426556042        1.1299640387
 C         -3.3443565974        1.9349528722        4.9740480215
 C         -4.2266444031        2.6863995528        2.2806002922
 C         -4.0638855680        2.7928315844       -3.0925506774
 C         -2.8279896898        2.2378529885       -5.6942651120
 C          6.8803875887        1.0190518315       -1.3071017317
 C          6.7863223649       -1.2437055928       -3.1655035453
 C          1.1834898117        0.0277422511        3.7066338761
 C         -0.4164455994       -1.3170595684       -0.6722881932
 C          1.2616786669        1.3402298381        0.2541843353
 C          0.9266636871       -0.7938445842       -4.0724495300
 C          3.4925592065       -0.0774863004        3.0304932517
 C         -1.4266076618       -2.8594563314        0.8753557486
 C          2.3984095035        2.0628363001        3.2798792608
 C         -2.7665935131       -1.1434674329       -0.1773594852
 C          0.0912103852        3.3678886367       -0.3098281414
 C         -0.3374878219       -2.8010423584       -3.6534405500
 C          2.2858132862        2.9353653229       -1.2291501972
 C          2.0511822600       -2.7761771769       -3.2927046721
 C          2.2214512009       -2.1797365918        3.3734043215
 C          0.9906795710       -3.0583612804        0.3579533607
 C         -0.0110688866        2.1913032456        3.7884876571
 C         -1.7274010376        0.4492902430       -1.7696789793
 C         -0.9649992720        1.7233179745        1.2186871684
 C         -1.5394479729       -0.7468335352       -4.2874220315
 C          3.4999480335        0.8513856102       -0.6534161587
 C          3.3513777471       -0.6948996173       -3.6359125144
 C          2.3080399687       -0.7254699933        3.3906586017
 C         -0.3007531683       -2.4077074454        0.1843070669
 C          1.2131484893        1.4195784078        3.6335622113
 C         -1.6409167345       -0.6800762803       -0.8569690589
 C          0.1362766397        2.1520491405        0.3713751100
 C         -0.2964106329       -1.4624928055       -4.0417235837
 C          2.3384673325        1.7225680758       -0.5398124489
 C          2.0974564247       -1.4357744613       -3.6853816021
 C          3.5182635941        1.3018980512        2.9938883841
 C         -2.6351207136       -2.2179367912        0.6829467705
 C          1.1647181264        3.7329675275       -1.1012328508
 C          0.8387129973       -3.4351426762       -3.2945931279
 C          2.9287562400       -4.3107981289        2.7440082378
 C          2.4379038477       -4.6281943308        1.3083247999
 C         -2.3281646491        2.3674741551        3.9203230232
 C         -2.8736592000        2.0165706751        2.4959880702
 C         -2.8151620055        1.9224350136       -3.1907085278
 C         -2.7802043508        1.1985944089       -4.5772182317
 C          5.5826250152        0.2364116532       -1.5171596506
 C          5.5569807504       -0.3623988759       -2.9469880496
 Br         5.1341773096        2.1903104947        2.4928711640
 Br        -4.1719525996       -2.8226588743        1.6428047613
 Br         1.0876243776        5.3859945498       -2.0565434420
 Br         0.7714885565       -5.2655802843       -2.7508426725
 N          3.1111682541       -2.8934853388        2.8319075385
 N          1.1509974465       -4.0304094529        1.1453163687
 N         -1.1157467312        1.6345494339        4.0573860958
 N         -2.8302149531        0.9106343688       -2.1829990975
 N         -1.9188225679        2.4876044933        1.5451532262
 N         -1.5530359480        0.4773633053       -4.6087820015
 N          4.4748898529        1.1305406072       -1.4030214210
 N          4.3733464797       -1.1596887878       -3.0580729328
 H          3.4120447668       -6.9195792040        3.5414362944
 H          5.0899411607       -6.9990801528        2.9949408822
 H          3.5160789945       -7.9140291183        1.2802802951
 H          4.3832301898       -6.4984774919        0.6779941146
 H         -4.6007827686        3.6757232946        4.8290540339
 H         -5.4041123568        2.2516791652        5.4967196995
 H         -5.3777320369        1.1684025520        3.2738788347
 H         -6.1819893326        2.7412644260        3.1729624437
 H         -3.2504498780        4.4840666757       -4.1417694107
 H         -5.0153652066        4.4127550953       -4.1387362341
 H         -4.0761486282        3.8465418976       -6.3823988139
 H         -4.9640916068        2.4863563333       -5.6879768404
 H          9.0051522260        0.7172208265       -1.3879336201
 H          8.0978072867       -0.6796306147       -0.8011042531
 H          8.9308248211       -1.1127937228       -3.0901596485
 H          8.1351805186        0.3523307704       -3.6739361947
 H          4.5795010034       -4.7877988130        4.0254068007
 H          5.0044532583       -4.6126761624        2.3203023064
 H          1.9750051034       -6.3472693453        0.1118545365
 H          1.5456798676       -6.5062480170        1.8167671853
 H         -3.4389506770        0.8484384523        4.9344551803
 H         -2.9577261475        2.2041478540        5.9592631671
 H         -4.0895573675        3.7682805860        2.3110153035
 H         -4.5891389388        2.4207318683        1.2862004039
 H         -4.9412468714        2.1450550760       -3.1292159924
 H         -4.0569744147        3.2986706113       -2.1253808280
 H         -1.9285200068        2.8525605374       -5.6327267887
 H         -2.8157185583        1.7168581488       -6.6538503445
 H          6.8905210578        1.8595459946       -2.0027346154
 H          6.8837760262        1.4222002186       -0.2925833662
 H          6.7337883771       -2.0851586238       -2.4725176556
 H          6.7539947316       -1.6418196776       -4.1817934855
 H          0.2554414627       -0.4496746250        3.9804499632
 H          0.4517617043       -0.9622613241       -1.2092981581
 H          1.2987070472        0.4043807414        0.7936764614
 H          0.9362056687        0.2421998919       -4.3737664184
 H          4.3598747423       -0.6693428130        2.7855385056
 H         -1.3271602938       -3.7018075960        1.5408196433
 H          2.4371125627        3.1399818419        3.2177491695
 H         -3.7119151439       -0.6490025024       -0.3320670770
 H         -0.7820351980        3.9921304118       -0.2087566985
 H         -1.2772879630       -3.3315573690       -3.6231680511
 H          3.1240244705        3.2235031164       -1.8428367321
 H          2.9645747976       -3.2654289648       -2.9945358415
 H          1.3162545869       -2.6085193692        3.8252676247
 H          1.8137729486       -2.6448580021       -0.2466224249
 H          0.0719968297        3.2714141398        3.5987266327
 H         -0.7610144350        0.8707420887       -2.0834013413
 H         -0.9070193441        0.6805831404        1.5646121405
 H         -2.4638377815       -1.3200312923       -4.1233933847
 H          3.4659880015       -0.0652020694       -0.0431357038
 H          3.3376711462        0.3000173389       -4.1019726347
 H          2.1532058182       -4.6659628666        3.4436595352
 H          3.1747733176       -4.2153999414        0.5966718135
 H         -2.1647319592        3.4585321702        3.9520327190
 H         -2.9707015426        0.9187094583        2.4594079339
 H         -1.9024878268        2.5380506100       -3.1341110656
 H         -3.6578967702        0.5305123517       -4.6229112778
 H          5.5129658093       -0.5977361395       -0.7965804534
 H          5.5492591151        0.4813254146       -3.6576731006
 C         -9.4340543251        3.1321079960        3.7481801149
 C         -9.9486511203        1.6922545506        3.7993126290
 O         -8.4856406900        3.2852852682        2.7051881480
 C         -9.0475002359        2.9108982758        1.4580651273
 C         -9.5639093495        1.4716456637        1.5108406630
 O        -10.5137688693        1.3220199725        2.5527411663
 H         -8.9181546307        3.3953683892        4.6715734287
 H         -9.1197022474        1.0125044001        4.0432597507
 H         -9.8761170811        3.5899724276        1.2109680999
 H         -8.7232979160        0.7831548996        1.6780503442
 H        -10.7438705251        1.5887649900        4.5375645600
 H         -8.2508252131        3.0129343349        0.7212702865
 H        -10.0806567751        1.2094709276        0.5874905989
 H        -10.2768469248        3.8180799283        3.5811675869