142
-211.12761107
 C         -0.2331212836       -6.5637452443        2.1399293569
 C         -0.9138005896       -6.4089166908        0.7837443044
 C         -2.4044944494        5.6041063968        5.8243344249
 C         -3.1642376145        5.8048249305        4.5169675343
 C         -2.1312545121        7.3322852126       -3.1105107005
 C         -2.5984483638        6.8934854273       -4.4946559168
 C          6.3548578375       -2.4640456817       -2.3131886497
 C          5.9071070035       -2.7851434741       -3.7354659864
 C          0.7046251040       -5.3901932432        2.3997939615
 C         -1.6742741858       -5.0899659236        0.7176327659
 C         -1.6499477053        4.2795078792        5.8049314847
 C         -2.2072180114        5.7531852337        3.3313239419
 C         -2.5489399425        6.3109290576       -2.0585259582
 C         -2.0370391864        5.5176964390       -4.8355250525
 C          5.8181693786       -1.1047106105       -1.8815989399
 C          4.3860745975       -2.7564129134       -3.8318934803
 C          0.9225668831        0.3972388037        3.7636614578
 C         -1.5038691194        0.6313239851       -0.4138306987
 C          1.3952598831        1.9238383962        0.4300356598
 C         -0.3847875610        0.7925826900       -3.9291494905
 C          2.7349577151       -0.8476432871        2.7803204631
 C         -3.0733812785       -0.3355354605        1.1342671387
 C          3.0163065232        1.4947291522        3.3019603206
 C         -3.3561727723        1.9463033164        0.3860397489
 C          1.4509303564        4.3131092159        0.1323255360
 C         -2.4863666100       -0.2853253315       -3.4563257470
 C          2.9696626230        2.8984727074       -1.1081533161
 C         -0.4351965332       -1.5617154398       -3.4231456200
 C          0.5563871084       -1.9653132654        3.1679463875
 C         -1.1796572252       -1.7041926817        0.3070078307
 C          1.1277879504        2.8334685357        4.1463563552
 C         -1.7451985927        2.9429886727       -1.2148797388
 C         -0.1692689507        3.3121786403        1.7212773139
 C         -2.4472830156        2.1541902878       -3.7999783401
 C          2.9311034590        0.4392212201       -0.8015091524
 C          1.7427239577       -0.4467290566       -3.8190903364
 C          1.4219881137       -0.7965924736        3.2560189632
 C         -1.9302539596       -0.4564956542        0.3420387147
 C          1.7050610271        1.5509836418        3.7726495849
 C         -2.2078395888        1.8327991588       -0.3966909127
 C          0.9004906648        3.1872889338        0.7436681413
 C         -1.7677771074        0.8677116464       -3.7695985293
 C          2.4292774942        1.7702192926       -0.4884381710
 C          0.2881005186       -0.4092658360       -3.7417986820
 C          3.5092325587        0.2939666521        2.8226960084
 C         -3.7619118888        0.8623458781        1.1425615913
 C          2.4697151332        4.1459868108       -0.7875111403
 C         -1.8070984577       -1.4802834936       -3.2978697491
 C         -0.0492364109       -4.0621490600        2.3441125514
 C         -0.7399338612       -3.9040460477        0.9651457958
 C         -0.6740588419        4.2215673266        4.6325356005
 C         -1.4575955242        4.4254209353        3.2936466818
 C         -1.9822688214        4.9321612882       -2.3814307651
 C         -2.4627732154        4.4800070383       -3.8001165533
 C          4.2907080811       -1.0675124859       -1.9622669292
 C          3.8345013142       -1.3959783855       -3.4071530807
 Br         5.3026213953        0.2287196984        2.1664103699
 Br        -5.3173735570        1.0321112262        2.2393843990
 Br         3.1997573001        5.6883455879       -1.6475290751
 Br        -2.7974180221       -3.0531094585       -2.8557349467
 N          0.8762963009       -2.9794737919        2.4871184262
 N         -1.5119563571       -2.7032351040        1.0012166181
 N         -0.0715084410        2.9352330278        4.5383695601
 N         -2.4554528059        3.9642386666       -1.4443408555
 N         -0.5004061165        4.4201431596        2.2340952287
 N         -1.8268545908        3.2299890257       -4.0447575176
 N          3.8399949885        0.2523535959       -1.6555748786
 N          2.4037210758       -1.4400075764       -3.4058342439
 H         -0.9909915830       -6.6040140826        2.9253609605
 H          0.3344757733       -7.4951584318        2.1710284844
 H         -1.6090270098       -7.2324944327        0.6158225906
 H         -0.1619124429       -6.4351520271       -0.0078649434
 H         -1.6957269395        6.4236803074        5.9636531640
 H         -3.0995538176        5.6128199105        6.6654182802
 H         -3.9172377197        5.0208148241        4.4095343681
 H         -3.6785621337        6.7670703724        4.5276671597
 H         -1.0434158129        7.4313183479       -3.1079855558
 H         -2.5589272740        8.3050609124       -2.8627861094
 H         -2.2711894756        7.6145170472       -5.2454118184
 H         -3.6900447866        6.8558090450       -4.5160604388
 H          7.4443547150       -2.4565883647       -2.2552011732
 H          5.9863647602       -3.2335843256       -1.6313417761
 H          6.2710975135       -3.7709887076       -4.0296720742
 H          6.3290303441       -2.0502529991       -4.4246410962
 H          1.1720319391       -5.4851073256        3.3820342356
 H          1.4976518951       -5.3673291425        1.6504289422
 H         -2.1426036223       -4.9666814069       -0.2606558129
 H         -2.4617340988       -5.0689170516        1.4725020531
 H         -2.3492080677        3.4467880510        5.7135160165
 H         -1.0875728054        4.1478132612        6.7316280514
 H         -1.4771097011        6.5615664995        3.3959443936
 H         -2.7555316328        5.8673489790        2.3945234948
 H         -3.6365432489        6.2360374857       -2.0114684025
 H         -2.1878823314        6.6106567534       -1.0730735928
 H         -0.9466854324        5.5500951948       -4.8637930082
 H         -2.3906724469        5.1942679390       -5.8167146382
 H          6.2149318289       -0.3190263824       -2.5263723331
 H          6.1187123853       -0.8819492408       -0.8560371024
 H          3.9521993012       -3.5207963604       -3.1850207684
 H          4.0643557796       -2.9590950056       -4.8555210363
 H         -0.0899875718        0.4629382396        4.1305856114
 H         -0.6207346463        0.5430688994       -1.0306103813
 H          0.9744177908        1.0543189421        0.9147738073
 H          0.1523060161        1.6970063455       -4.1695192963
 H          3.1136794710       -1.7778726339        2.3881728284
 H         -3.3949818712       -1.1824908032        1.7185961932
 H          3.6341255211        2.3800992570        3.3013977433
 H         -3.8978944688        2.8784180304        0.3882892564
 H          1.0651226255        5.2874231025        0.3857192538
 H         -3.5575335299       -0.2426137897       -3.3283155932
 H          3.7686792692        2.7697435203       -1.8203495791
 H          0.0953723633       -2.4893191126       -3.2796995558
 H         -0.4017463318       -1.8907220448        3.7005901255
 H         -0.3078132620       -1.7144032325       -0.3664718508
 H          1.7779856956        3.7106337447        4.0135217284
 H         -0.7336215366        2.8268811330       -1.6311323579
 H         -0.6666565569        2.3692275264        1.9921902450
 H         -3.5167125231        2.1392391798       -3.5431610302
 H          2.4647006665       -0.3874241556       -0.2421841631
 H          2.2229325042        0.4542958492       -4.2251221571
 H         -0.8387629258       -4.0282714518        3.1138270180
 H          0.0473662442       -3.8632429173        0.1917401431
 H          0.0751369584        5.0292991762        4.7027947324
 H         -2.1604715039        3.5804163312        3.2088668970
 H         -0.8807295682        4.9588579306       -2.4160066836
 H         -3.5622993768        4.3887851806       -3.7626515704
 H          3.8488993098       -1.8202621714       -1.2855563552
 H          4.2177567919       -0.5965448388       -4.0637133841
 C         -1.1872800799      -11.4078572216        1.1609275089
 C         -1.9939954627      -11.5390097605       -0.1326386552
 O         -1.1651673076      -12.6400261724        1.8624360889
 C         -0.6365750530      -13.6714996067        1.0462053248
 C         -1.4453022434      -13.8024426481       -0.2460356698
 O         -1.4640690135      -12.5709763486       -0.9479462376
 H         -1.6452007490      -10.6839113423        1.8348230185
 H         -3.0428175371      -11.7639478534        0.1092351109
 H          0.4118492846      -13.4464044189        0.8023531388
 H         -2.4750760905      -14.1048474419       -0.0065063732
 H         -1.9366112371      -10.6252247449       -0.7239887696
 H         -0.6928448996      -14.5865277942        1.6359745778
 H         -0.9911351148      -14.5303560843       -0.9184638998
 H         -0.1582214198      -11.1021634493        0.9229161653