142
-211.12629970
 C          4.2044499816       -6.9803204479        3.2576271675
 C          3.5657779554       -7.3809270729        1.9318724043
 C         -4.6103991216        2.2651316438        4.5568601159
 C         -5.2174376020        1.8918053131        3.2078621591
 C         -5.1253714624        2.7162247329       -3.3462812648
 C         -5.1822054314        1.9008836792       -4.6336817208
 C          7.3213116320        1.0852601196       -1.6354842904
 C          7.4182391144        0.1540270094       -2.8386583605
 C          4.3573623197       -5.4658098722        3.3340405113
 C          2.2134451393       -6.6987632751        1.7661955679
 C         -3.2569811594        1.5872012743        4.7394623821
 C         -4.2760024307        2.2834758900        2.0731564190
 C         -4.8610874927        1.8068405779       -2.1513522543
 C         -3.8786835401        1.1365743442       -4.8305963581
 C          6.0053526849        1.8519215202       -1.6640949666
 C          6.2416211131       -0.8138505282       -2.8477918796
 C          1.2286187768       -0.3736999763        3.5992774920
 C         -0.7093344290       -1.8489864418        0.1852764944
 C          0.3475761216        2.1685660031       -0.3566534497
 C          0.3328641786       -1.2843387305       -3.4830725800
 C          3.5678895271       -0.5192027472        3.0442378949
 C         -1.5216961309       -3.4227411307        1.8167329177
 C          2.4449251018        1.6224949027        3.0217991563
 C         -3.0275491107       -1.8084394915        0.8354570274
 C         -0.8894535833        3.8850522085       -1.5080672311
 C         -0.5751845886       -3.4074064124       -2.7980411434
 C          1.3285023670        3.2813953820       -2.2534157685
 C          1.8116551443       -3.0285450048       -2.7322214801
 C          2.2969297565       -2.5855347993        3.5687436631
 C          0.8401707479       -3.5493907088        1.0931081876
 C          0.0181679936        1.7736193188        3.4588708254
 C         -2.2263778847       -0.2385582547       -0.9008432345
 C         -1.9358445677        2.7631376244        0.4212432076
 C         -2.1166768476       -1.5693952100       -3.3853372735
 C          2.6326334235        1.5453274842       -1.0638746485
 C          2.7482012181       -0.8186070055       -3.3625030485
 C          2.3733515584       -1.1392931463        3.4192323468
 C         -0.4755774044       -2.9250003784        1.0375474421
 C          1.2497841870        1.0024688994        3.3835559048
 C         -1.9830686758       -1.2992018129        0.0646252090
 C         -0.8086636139        2.9370759264       -0.4906916013
 C         -0.7703031501       -2.1054688053       -3.2555009900
 C          1.4197399051        2.3378528068       -1.2253910855
 C          1.6191483494       -1.7277774632       -3.2039322930
 C          3.5824368823        0.8493927319        2.8658932421
 C         -2.7717481717       -2.8457326048        1.7118932297
 C          0.1779881453        4.0325641403       -2.3768164710
 C          0.7144511933       -3.8485554807       -2.5590741921
 C          3.0096435871       -4.7657538072        3.1759577622
 C          2.3508339085       -5.1773054311        1.8284683863
 C         -2.3003286034        1.9606445377        3.6084512374
 C         -2.9303535935        1.5789258230        2.2396731419
 C         -3.5592077221        1.0296427050       -2.3233773406
 C         -3.6015381660        0.2069453490       -3.6515369910
 C          4.8044357852        0.9020499423       -1.6742160702
 C          4.9081615021       -0.0682147410       -2.8792777989
 Br         5.2176870584        1.7078673183        2.3660848776
 Br        -4.1963317307       -3.5046214981        2.8008791768
 Br         0.0457803247        5.3197171330       -3.7863898486
 Br         0.9769429942       -5.6389068567       -1.9512577342
 N          3.2036916523       -3.3497163872        3.1328458079
 N          1.0519451147       -4.5881774398        1.7794433195
 N         -1.0847757406        1.2208388353        3.7231919469
 N         -3.3952130868        0.0979287338       -1.2520589719
 N         -1.9266916408        1.8073461339        1.2462335986
 N         -2.3124044916       -0.3823739136       -3.7769873414
 N          3.6181087358        1.6796915183       -1.8400276296
 N          3.8435761163       -1.0205677280       -2.7691506331
 H          3.5771005027       -7.3247617722        4.0828945623
 H          5.1838993985       -7.4507286449        3.3597966269
 H          3.4320245430       -8.4630293223        1.8910972966
 H          4.2208782034       -7.0913790753        1.1074542814
 H         -4.4842194326        3.3494339238        4.6137476383
 H         -5.2799710205        1.9621401758        5.3633923710
 H         -5.3961854356        0.8150720287        3.1764504641
 H         -6.1777343904        2.3951434992        3.0787536751
 H         -4.3245981720        3.4552144485       -3.4272800564
 H         -6.0669031208        3.2485354645       -3.1989807774
 H         -5.3492211639        2.5605788653       -5.4865981039
 H         -6.0144550918        1.1954636588       -4.5831194087
 H          8.1505401287        1.7943197661       -1.6393679165
 H          7.3813618697        0.5025176783       -0.7142226754
 H          8.3523486474       -0.4089780955       -2.8036876629
 H          7.4132437250        0.7434458577       -3.7583466879
 H          4.7906200667       -5.1735561171        4.2927813107
 H          5.0216222682       -5.1135076832        2.5431716334
 H          1.7666913167       -6.9670089489        0.8071862225
 H          1.5309507345       -7.0135276445        2.5570891692
 H         -3.3750797895        0.5027572410        4.7440449215
 H         -2.8084513994        1.8821349623        5.6903925654
 H         -4.1297689453        3.3659891225        2.0730697239
 H         -4.7009445016        1.9939203169        1.1090418947
 H         -5.6761449602        1.0911906834       -2.0322650228
 H         -4.7903609564        2.3932318757       -1.2329276423
 H         -3.0423810046        1.8315493953       -4.9246689027
 H         -3.9216930961        0.5369106430       -5.7419584096
 H          5.9520001934        2.4779177248       -2.5563858688
 H          5.9263383402        2.4993632446       -0.7887998073
 H          6.2619194511       -1.4385985582       -1.9532533295
 H          6.2926810887       -1.4704974295       -3.7187199346
 H          0.2926232473       -0.8299763232        3.8788570473
 H          0.0992431837       -1.4530780032       -0.4127150822
 H          0.3876254325        1.4457882861        0.4447157644
 H          0.1576808593       -0.2842664888       -3.8475424560
 H          4.4500682824       -1.1222717839        2.9007297308
 H         -1.3299518650       -4.2531872503        2.4770130491
 H          2.4799670490        2.6888653588        2.8548033697
 H         -4.0127582550       -1.3847972504        0.7252637033
 H         -1.7759903594        4.4921149567       -1.6110992106
 H         -1.4187831947       -4.0586729460       -2.6258326731
 H          2.1645080534        3.4048781991       -2.9227545284
 H          2.8129998143       -3.3657724374       -2.5171368501
 H          1.3863948092       -2.9648085829        4.0525117021
 H          1.6199117144       -3.0777067930        0.4749439398
 H          0.1019683687        2.8456089991        3.2239073398
 H         -1.3280877784        0.2286886293       -1.3260483442
 H         -2.7392860370        3.4983881154        0.3217909740
 H         -2.9373043786       -2.2321313442       -3.0752881201
 H          2.6335612768        0.8386072380       -0.2190368597
 H          2.5703851620        0.0590950022       -3.9990525907
 H          2.3159376239       -5.0607987657        3.9808090771
 H          3.0001558307       -4.8102407260        1.0151156167
 H         -2.1177664699        3.0524349567        3.5976972933
 H         -3.0778270373        0.4920634148        2.2503289122
 H         -2.6990753442        1.7159083642       -2.4007493260
 H         -4.4006623400       -0.5475446717       -3.5476812724
 H          4.7798643092        0.2995956803       -0.7494378688
 H          4.8185092127        0.5400612720       -3.7946697793
 C         -3.9327460300        6.5726439272        1.2869072077
 C         -5.3529096201        6.9018177599        1.7498435563
 O         -3.9497457468        5.5158444613        0.3408230383
 C         -4.7712282255        5.8537362164       -0.7677783301
 C         -6.1897259381        6.1842371081       -0.3033978952
 O         -6.1707059113        7.2388100512        0.6435571017
 H         -3.3188369801        6.2310195682        2.1208855258
 H         -5.7820812965        6.0351559994        2.2735640449
 H         -4.3416923726        6.7209136419       -1.2890286676
 H         -6.6475663011        5.2919539484        0.1480891428
 H         -5.3541403366        7.7703604818        2.4083789244
 H         -4.7722551628        4.9847958489       -1.4252414719
 H         -6.7989299975        6.5327845220       -1.1371949291
 H         -3.4776114790        7.4632375315        0.8311444419