142
-211.12694232
 C          7.6785034398        0.8347547802       -3.0740034326
 C          7.4439617102       -0.0214818649       -4.3142645430
 C         -4.3078463200        2.3578259374        4.6483968021
 C         -3.5032058488        3.0092796224        5.7685754114
 C         -5.4184285586        1.3654336288       -4.2953913110
 C         -5.2680876320        2.3045904654       -3.1028664231
 C          6.0025026079       -5.3227114332        3.1443981375
 C          5.2870842078       -5.9692829860        1.9626735380
 C          6.4069229350        1.5862118298       -2.6991446082
 C          6.2972277839       -0.9970429368       -4.0758475975
 C         -3.6736104275        2.6550796666        3.2942259441
 C         -2.0582092511        2.5242110762        5.7387899522
 C         -4.0989360207        0.6601860816       -4.5885061770
 C         -4.7902102350        1.5360594740       -1.8758932070
 C          5.9113715274       -3.8038990051        3.0525480750
 C          3.8307032291       -5.5234542641        1.9147588994
 C          1.3045240743        1.4973493278        0.1428066728
 C          0.3939855427       -1.4899648812       -3.5301621215
 C          2.2698753011        0.8630259105        3.6457459321
 C         -0.0280407751       -1.5198248236        0.1357656501
 C          1.6836947754        2.8670883790       -1.7999945158
 C          1.9911184384       -3.1222785714       -2.7639757988
 C         -0.2841712936        3.2117336101       -0.4377285647
 C         -0.3757304798       -3.5242252796       -2.4948098584
 C          3.0267549064        2.9015181778        2.6095492700
 C         -2.2040091333       -1.5861225683        1.1657129283
 C          4.3563306100        0.8911346209        2.4426771055
 C         -0.3853082280       -2.8890017713        2.0831615341
 C          3.3320645118        1.1135937361       -1.2063761810
 C          2.8001497630       -0.9975264144       -3.7488071457
 C         -0.6720316341        1.8076782864        1.5702943412
 C         -2.0263597899       -1.8043141876       -3.1134293605
 C          0.8105927616        2.8614272939        3.6854519467
 C         -1.8413896664       -0.1819445399       -0.8465727165
 C          3.5462838743       -1.2340265658        3.4279241520
 C          1.8550188341       -2.8408282093        1.0233379874
 C          2.0940775143        1.8372637013       -0.9514116181
 C          1.7147842606       -1.8886345915       -3.3595884197
 C          0.1171637924        2.1762061717        0.4053154493
 C         -0.6556776410       -2.2920480622       -3.0843266136
 C          2.0667481417        2.2095218397        3.3467686628
 C         -1.3556857210       -1.1008903785        0.1711514627
 C          3.3986074556        0.1951381899        3.1851474517
 C          0.4635142890       -2.4145355195        1.0814915240
 C          0.5033944931        3.5319869261       -1.5282977231
 C          0.9425096547       -3.9199938851       -2.3536982974
 C          4.1580805697        2.2311579926        2.1791610845
 C         -1.7000185184       -2.4645924577        2.1071190072
 C          5.2510781286        0.6164450754       -2.4453911398
 C          5.0131724613       -0.2559987548       -3.7049265461
 C         -2.2312611557        2.1614179410        3.2476912718
 C         -1.4042259272        2.8319316100        4.3942811421
 C         -3.6182470967       -0.1295035095       -3.3737923080
 C         -3.4635121061        0.8362286281       -2.1526775899
 C          4.4550584957       -3.3426558274        3.0108818481
 C          3.7258865422       -4.0005209436        1.8111205384
 Br        -0.0655854398        4.9307556856       -2.6993873608
 Br         1.3177112645       -5.6043734760       -1.5335772826
 Br         5.4627970386        3.1834762748        1.1587089046
 Br        -2.8571210286       -3.1025815639        3.4877025347
 N          4.0586190463        1.3647528675       -2.2061334384
 N          3.9909839318       -1.2051150719       -3.3837845987
 N         -1.6163236287        2.5246927079        2.0112842686
 N         -2.3240945071       -0.6763664093       -3.6046281208
 N         -0.1030876955        2.2586647906        4.3212273324
 N         -3.0723718845        0.0430501198       -1.0314353181
 N          4.4086024039       -1.9251298869        2.8170598042
 N          2.3504268943       -3.6228402135        1.8797845867
 H          7.9826757940        0.1966962402       -2.2413694662
 H          8.4799061706        1.5517087592       -3.2588463449
 H          8.3490996918       -0.5785247963       -4.5620214193
 H          7.2022823627        0.6237469847       -5.1618029750
 H         -4.3398296036        1.2771536809        4.8044210216
 H         -5.3333015784        2.7304694020        4.6594099782
 H         -3.5243045097        4.0949601597        5.6489220706
 H         -3.9465001997        2.7680243649        6.7359936970
 H         -6.1877642960        0.6207733596       -4.0784778600
 H         -5.7320392533        1.9276760476       -5.1763657455
 H         -6.2229764472        2.7843913708       -2.8825146760
 H         -4.5451004374        3.0868273578       -3.3448590114
 H          7.0514057617       -5.6236035724        3.1580761957
 H          5.5428909713       -5.6588383438        4.0765072709
 H          5.3287857951       -7.0562434336        2.0475181935
 H          5.7853214465       -5.6845150217        1.0333965748
 H          6.5656213116        2.1826983001       -1.7987517001
 H          6.1161640970        2.2631608167       -3.5038997554
 H          6.1098291630       -1.5925515221       -4.9717322009
 H          6.5464803237       -1.6811958225       -3.2629298627
 H         -3.6788589850        3.7286219840        3.0987839624
 H         -4.2329237888        2.1634148010        2.4962957661
 H         -2.0171987890        1.4463596416        5.9040012379
 H         -1.4773749477        3.0086783848        6.5263718361
 H         -3.3306662881        1.3884569451       -4.8532090327
 H         -4.2136730577       -0.0293408774       -5.4274262050
 H         -5.5254743137        0.7828075138       -1.5883159108
 H         -4.6531915749        2.2144623450       -1.0319321551
 H          6.4104371184       -3.4497327667        2.1489342181
 H          6.4000363003       -3.3391692435        3.9113646503
 H          3.3072216616       -5.8423701292        2.8173682232
 H          3.3223412129       -5.9670733574        1.0566022113
 H          1.6185948854        0.7030879950        0.8050908674
 H          0.1557170749       -0.5394671140       -3.9818773999
 H          1.5136622937        0.3458837212        4.2157848874
 H          0.6236734072       -1.1510085994       -0.6435578659
 H          2.3007855119        3.1223272897       -2.6463236461
 H          3.0187498911       -3.4226735469       -2.6364364827
 H         -1.2022079151        3.7350074926       -0.2237374456
 H         -1.1779305487       -4.1556667113       -2.1436242588
 H          2.8827902641        3.9440899496        2.3689066959
 H         -3.2316720839       -1.2605914534        1.1816037299
 H          5.2286476157        0.3646597652        2.0899394130
 H          0.0043985062       -3.5801461629        2.8130019948
 H          3.5884266945        0.3372349916       -0.4679093062
 H          2.5098796262       -0.1233730934       -4.3478483469
 H         -0.3811709045        0.8620440037        2.0510842208
 H         -2.7760463482       -2.4509688209       -2.6340971980
 H          0.6840172539        3.8866845738        3.3077614549
 H         -1.0601408134        0.2964504341       -1.4554137378
 H          2.8401444856       -1.6719990355        4.1468351167
 H          2.4401910231       -2.4364753410        0.1819461396
 H          5.4888960467       -0.0578986920       -1.6037049178
 H          4.7019900072        0.4195394214       -4.5196509207
 H         -2.1832778781        1.0735595768        3.4200111880
 H         -1.3929376417        3.9186918783        4.2008613812
 H         -4.3533051002       -0.9032068423       -3.0911628035
 H         -2.6838385385        1.5663308237       -2.4252617763
 H          3.9219733831       -3.6470774984        3.9274536533
 H          4.2046848642       -3.6415995495        0.8828574371
 C        -11.6469098072        2.2762213887       -1.9780531177
 C        -12.0793457819        0.9452304075       -1.3594615470
 O        -12.7788772515        3.0329940938       -2.3731345353
 C        -13.6424702766        3.2532003094       -1.2704658380
 C        -14.0746766512        1.9223641415       -0.6514316410
 O        -12.9427052163        1.1654902203       -0.2566501698
 H        -11.0586829510        2.1139019646       -2.8813532246
 H        -12.5977711302        0.3390482289       -2.1164435474
 H        -13.1244349872        3.8597238056       -0.5135323227
 H        -14.6625787122        1.3498431072       -1.3834230577
 H        -11.2205816916        0.3987325505       -0.9694923530
 H        -14.5016559451        3.7992707866       -1.6600961600
 H        -14.6628493988        2.0851219126        0.2517934719
 H        -11.0596353665        2.8485267091       -1.2454528537