142
-211.12670162
 C          5.9296845084       -5.5453001569        3.5545549083
 C          5.1465495117       -6.1926058005        2.4169625009
 C         -3.0725577315        3.2682546719        6.3402191809
 C         -3.9577258621        2.5876775083        5.3008511672
 C         -5.1826050910        2.3589528094       -2.6217288497
 C         -5.4389285785        1.3807290118       -3.7638347043
 C          7.5702665609        0.2351897460       -2.8394890578
 C          7.2823499547       -0.6668938941       -4.0353333039
 C          5.9018600828       -4.0270969591        3.4207991497
 C          3.7100500114       -5.6840532697        2.4039022974
 C         -1.6476316059        2.7317446601        6.2618569615
 C         -3.3875082431        2.7893409664        3.9013412018
 C         -4.7078895415        1.6140824269       -1.3790470268
 C         -4.1806481886        0.5764521214       -4.0709596667
 C          6.3314742138        1.0427628409       -2.4709788443
 C          6.1096530194       -1.5925013570       -3.7321152861
 C          2.4992112472        0.8103066432        4.0218642593
 C         -0.0369392116       -1.6048011191        0.5928842382
 C          1.3702876127        1.2773989749        0.5655325175
 C          0.2019539589       -1.8027418527       -3.0600897862
 C          4.5221275967        0.7120373703        2.7181637788
 C         -0.3766306303       -2.8465934420        2.6268180712
 C          3.2798928468        2.7785105330        2.8736058676
 C         -2.1682075916       -1.5061432072        1.7097333033
 C         -0.2200571004        2.9772717161       -0.0507114586
 C         -0.6466599251       -3.7356799314       -1.9004396491
 C          1.6544261713        2.4850780382       -1.4972417429
 C          1.7299242660       -3.4809802221       -2.2535699913
 C          3.6763801104       -1.3445322291        3.8130922187
 C          1.8188664135       -2.9624464862        1.4803649070
 C          1.1177599686        2.8630060322        4.0524306406
 C         -1.8215442613       -0.2291402414       -0.3882616200
 C         -0.5151297710        1.7334159958        2.0749739313
 C         -2.2152830728       -1.9511237541       -2.5536098737
 C          3.3066391410        0.7473582911       -0.8633237902
 C          2.6216083515       -1.4469127109       -3.3548554240
 C          3.5764626119        0.0815398024        3.5311996646
 C          0.4511775320       -2.4694207716        1.5678832167
 C          2.3321991881        2.1520899586        3.6819211213
 C         -1.3401293265       -1.1183295501        0.6571113408
 C          0.2134112264        2.0003616814        0.8446167698
 C         -0.8761603287       -2.5204146367       -2.5441628266
 C          2.0990245488        1.5162920139       -0.5957670980
 C          1.5035651982       -2.2646398348       -2.9031618400
 C          4.3624081843        2.0488422235        2.4151725040
 C         -1.6678238762       -2.3571884033        2.6778267822
 C          0.5034641975        3.1932835014       -1.2090721787
 C          0.6516437790       -4.1976515377       -1.7760262358
 C          4.4660780585       -3.5036862942        3.4130933251
 C          3.6691156451       -4.1613981438        2.2577919032
 C         -1.0582046256        2.9433572355        4.8696969087
 C         -1.9675187673        2.2403660313        3.8087003824
 C         -3.4384655096        0.8214301960       -1.6730703901
 C         -3.7046902062       -0.1880303525       -2.8384143154
 C          5.1529725422        0.1205352814       -2.1513521463
 C          4.8599030563       -0.7912976544       -3.3700007291
 Br         5.6501722608        2.9114366591        1.2980471355
 Br        -2.7948511642       -2.8612597314        4.1360618461
 Br        -0.1183196232        4.5016570149       -2.4544206104
 Br         0.9589740486       -5.8570149975       -0.8801833459
 N          4.4730803075       -2.0914519530        3.1794339619
 N          2.3148139591       -3.7190699737        2.3589796386
 N          0.2182842528        2.3223736209        4.7599523575
 N         -3.0444825003        0.0614154068       -0.5300364194
 N         -1.4096525405        2.5080617586        2.5214621796
 N         -2.4593505873       -0.8304995143       -3.0892444203
 N          3.9892541724        0.9130728911       -1.9107893514
 N          3.8075561051       -1.6856990259       -2.9931769182
 H          5.4881093766       -5.8340908899        4.5109298991
 H          6.9643053785       -5.8922012070        3.5424896139
 H          5.1438692436       -7.2775174245        2.5327312946
 H          5.6245273500       -5.9566004446        1.4636648783
 H         -3.0647667591        4.3461682501        6.1627265236
 H         -3.4705299444        3.0943415827        7.3412257789
 H         -4.0174218605        1.5186645302        5.5173610190
 H         -4.9680057111        2.9974956440        5.3447950306
 H         -4.4208529777        3.0809096210       -2.9246893512
 H         -6.0957691397        2.9092573891       -2.3897010654
 H         -5.7490133282        1.9237453582       -4.6580303370
 H         -6.2464898355        0.6995225843       -3.4857949967
 H          8.3890366733        0.9175793921       -3.0727368906
 H          7.8732820530       -0.3751417910       -1.9858969948
 H          8.1639099318       -1.2637367731       -4.2752811388
 H          7.0440760649       -0.0519829939       -4.9060547141
 H          6.4388920241       -3.5606082827        4.2492775587
 H          6.3850461944       -3.7208731406        2.4913954908
 H          3.1535246934       -6.1292723494        1.5770388457
 H          3.2045218887       -5.9533797727        3.3325206755
 H         -1.6324912396        1.6636031112        6.4844615910
 H         -1.0096674990        3.2372922571        6.9897543485
 H         -3.3661453626        3.8505594232        3.6482054207
 H         -4.0052498300        2.2781798677        3.1606816918
 H         -5.4770241507        0.9214898492       -1.0333874256
 H         -4.4987134885        2.3164042088       -0.5701288095
 H         -3.3777717274        1.2394109737       -4.3974511896
 H         -4.3729521070       -0.1408245063       -4.8715646990
 H          6.0437823012        1.6939698569       -3.2977695800
 H          6.5293950808        1.6715671153       -1.6008872188
 H          6.3529296199       -2.2487951797       -2.8947774264
 H          5.8842564521       -2.2195790451       -4.5971559777
 H          1.7533303707        0.3443097155        4.6469518124
 H          0.5988262847       -1.3116878780       -0.2305193838
 H          1.7090693823        0.5274501987        1.2661330555
 H          0.0023548635       -0.8639536695       -3.5530660511
 H          5.3546324642        0.1389294239        2.3426744226
 H          0.0100817021       -3.5151669267        3.3789599962
 H          3.1634087786        3.8164901215        2.6004306830
 H         -3.1773563338       -1.1287052199        1.7479675050
 H         -1.1136200275        3.5360254340        0.1762610759
 H         -1.4711158759       -4.3021320809       -1.4942472347
 H          2.2218516394        2.6605194521       -2.3969688390
 H          2.7428786487       -3.8313153039       -2.1365777655
 H          2.9903364038       -1.7293985539        4.5802304783
 H          2.3863593261       -2.6294773257        0.5967356113
 H          1.0054686701        3.8736159898        3.6329340634
 H         -1.0436559767        0.1678283503       -1.0571190366
 H         -0.2252098270        0.8096740058        2.5973274894
 H         -2.9852843129       -2.5245809426       -2.0168474507
 H          3.5814118124        0.0143293933       -0.0880342344
 H          2.3605105200       -0.5913054113       -3.9927774578
 H          3.9522932458       -3.7588570571        4.3554612467
 H          4.1316032855       -3.8522279875        1.3036148858
 H         -1.0228925803        4.0171251319        4.6156842349
 H         -1.9477194706        1.1633165301        4.0424801431
 H         -2.6296877250        1.4885779202       -2.0135793309
 H         -4.4770103366       -0.8965059843       -2.4914549950
 H          5.3928687157       -0.5269558793       -1.2892512180
 H          4.5592634373       -0.1376162624       -4.2062920507
 C        -12.7118564765        3.2474949373       -7.9585791283
 C        -13.3741712518        3.0268310639       -6.5970446917
 O        -12.9563729449        4.5641670576       -8.4241221376
 C        -12.4942221263        5.5200987086       -7.4843607745
 C        -13.1565034670        5.2994630617       -6.1228448226
 O        -12.9120300158        3.9826449262       -5.6573590411
 H        -13.1297565303        2.5762173788       -8.7089333545
 H        -14.4655712095        3.1115511907       -6.7010471105
 H        -11.4028287762        5.4352263566       -7.3805171139
 H        -14.2403623242        5.4629723410       -6.2102788161
 H        -13.1141867324        2.0492960572       -6.1906877558
 H        -12.7542141121        6.4975726265       -7.8907631014
 H        -12.7384944697        5.9706507618       -5.3724977860
 H        -11.6279549636        3.0841451449       -7.8710597218