142
-211.13244745
 C          2.8604398396       -6.6657034745        3.0050679626
 C          2.0594092649       -6.9042823177        1.7292374186
 C         -3.0268121381        4.4312166820        5.8789848390
 C         -3.9061016280        4.2256281585        4.6497223086
 C         -4.1513831103        5.1001641490       -3.0550987088
 C         -4.5244649923        4.3685342489       -4.3403612361
 C          7.3780264731       -0.9592563708       -2.5516304284
 C          6.9496648594       -1.5716693068       -3.8811925706
 C          3.3582792940       -5.2259165825        3.0565251450
 C          0.8886832029       -5.9323034671        1.6474012510
 C         -1.8686233568        3.4399714849        5.8773788000
 C         -3.0821143151        4.3706556129        3.3752738464
 C         -4.0941690800        4.1248870031       -1.8847313385
 C         -3.5259116315        3.2527883331       -4.6264599354
 C          6.4330850223        0.1695941924       -2.1580844582
 C          5.5162230681       -2.0820890354       -3.7917973589
 C          1.6998397184        0.4291903720        3.8852909681
 C         -0.9977344470       -0.6301893110        0.0811656438
 C          1.3972874631        1.7075810233        0.3916017733
 C         -0.1982373412       -0.4409323240       -3.5552783011
 C          3.7471348536       -0.2581266896        2.8192349389
 C         -2.0127562913       -1.8928118634        1.8615260937
 C          3.2600877475        2.0911312308        3.1076152969
 C         -3.1190162119        0.0690669154        0.9812440615
 C          0.6003506425        3.9329076123       -0.0707307925
 C         -1.7292390324       -2.1396605250       -2.7923882163
 C          2.4284252800        3.0063355646       -1.3534294071
 C          0.6420829220       -2.5999221597       -2.8956421243
 C          2.1107104489       -1.9754494793        3.5412455196
 C          0.1608243515       -2.6347143855        0.9294587172
 C          1.0996649092        2.8240647941        4.0415100576
 C         -2.0829700255        1.3646845042       -0.8619351936
 C         -0.4549879409        2.6046826959        1.7376947995
 C         -2.6023644013        0.1023289989       -3.3019334320
 C          3.2695950444        0.7244421878       -0.8772547339
 C          2.2337270504       -0.8383292487       -3.6076659773
 C          2.5334137776       -0.5855064282        3.4296283526
 C         -0.9648022824       -1.7108566510        0.9572811357
 C          2.0456666613        1.7684976802        3.7117330325
 C         -2.0679828225        0.2607140429        0.0854434980
 C          0.5185248577        2.7523883952        0.6668373514
 C         -1.4983412420       -0.8444695430       -3.2549531815
 C          2.3564704469        1.8271357131       -0.6095416010
 C          0.8749008401       -1.3042145767       -3.3649419258
 C          4.0918799377        1.0710406293        2.6805877593
 C         -3.0653037948       -0.9979947559        1.8586572733
 C          1.5484114646        4.0336731593       -1.0721212177
 C         -0.6536745515       -2.9943093661       -2.6307613656
 C          2.1940385211       -4.2390298634        2.9820878639
 C          1.3750983539       -4.4823444735        1.6878386013
 C         -1.0231703983        3.5850351961        4.6146407704
 C         -1.9272073940        3.3745216507        3.3550148657
 C         -3.0916426040        3.0067499924       -2.1521032134
 C         -3.4693494637        2.2560735235       -3.4713625916
 C          4.9910770141       -0.3307719401       -2.0551318119
 C          4.5554674501       -0.9585876611       -3.4046701630
 Br         5.7493311896        1.5218215898        1.8436088975
 Br        -4.4911328162       -1.2376228025        3.1081754810
 Br         1.6360694289        5.6404959121       -2.1022184399
 Br        -0.9740758325       -4.7632343751       -1.9909450171
 N          2.7038720924       -2.9027353394        2.9226311976
 N          0.2433622220       -3.6120845581        1.7222720083
 N         -0.0292050739        2.5678869150        4.5537166966
 N         -3.1224387622        2.0463302785       -1.0957190598
 N         -1.1079568659        3.5824644257        2.2044725835
 N         -2.4372286375        1.2982223397       -3.6834937951
 N          4.1306007443        0.7791794692       -1.7972029429
 N          3.2411954870       -1.4968520066       -3.2255571451
 H          2.2287758043       -6.8633172420        3.8739912090
 H          3.7124823665       -7.3463331967        3.0459299892
 H          1.6808040139       -7.9273279603        1.7092671931
 H          2.7065441986       -6.7675477293        0.8601798049
 H         -2.6328311282        5.4501342390        5.8793670839
 H         -3.6168593304        4.2974308042        6.7870403147
 H         -4.3505673998        3.2283476631        4.6828390361
 H         -4.7166528154        4.9560652578        4.6436762754
 H         -3.1763303376        5.5769854623       -3.1778734729
 H         -4.8839591419        5.8804738509       -2.8427876903
 H         -4.5370097196        5.0674380132       -5.1782384461
 H         -5.5257031937        3.9431383221       -4.2403671924
 H          8.3940831783       -0.5690505286       -2.6279077150
 H          7.3695096626       -1.7276677550       -1.7755414885
 H          7.6133169852       -2.3967457049       -4.1452830684
 H          7.0187989273       -0.8177277599       -4.6685177427
 H          3.9099882989       -5.0450904536        3.9813443388
 H          4.0302783423       -5.0287744143        2.2195628026
 H          0.3279290093       -6.0851506366        0.7233421153
 H          0.2075570712       -6.0888156164        2.4852519114
 H         -2.2458267978        2.4170923602        5.9242946757
 H         -1.2264076201        3.6029602782        6.7453263679
 H         -2.6708627046        5.3786290919        3.3006632762
 H         -3.7057161155        4.1942413082        2.4971055265
 H         -5.0744846386        3.6767056371       -1.7148789473
 H         -3.7968823709        4.6441042197       -0.9718587349
 H         -2.5271567136        3.6672890947       -4.7729408608
 H         -3.8045640622        2.7151669760       -5.5351739829
 H          6.4664376516        0.9675879327       -2.9014447917
 H          6.7234950397        0.5939940334       -1.1951274130
 H          5.4425257308       -2.8710033681       -3.0413572184
 H          5.1980154268       -2.4979834738       -4.7499971337
 H          0.7551154679        0.2017460693        4.3542758473
 H         -0.1893595380       -0.4835011689       -0.6211142061
 H          1.3375660555        0.7977831354        0.9720959204
 H         -0.0426898849        0.5659225493       -3.9109554532
 H          4.3870398055       -1.0518500632        2.4683141228
 H         -1.9774282157       -2.7305171669        2.5392141049
 H          3.5417072024        3.1236586997        2.9656380250
 H         -3.9458448085        0.7608617368        0.9734142320
 H         -0.0815324491        4.7376257729        0.1526754472
 H         -2.7342800902       -2.4613348356       -2.5621085101
 H          3.1732228737        3.0891573125       -2.1284469701
 H          1.4806765699       -3.2623227129       -2.7512630298
 H          1.2273630533       -2.1561637810        4.1692956815
 H          0.9294283805       -2.4231348178        0.1690155877
 H          1.4032760178        3.8456487463        3.7697708575
 H         -1.1273542063        1.5580433104       -1.3710028495
 H         -0.5758760209        1.5814923601        2.1226679019
 H         -3.5687453969       -0.2745717939       -2.9378017814
 H          3.1585605570       -0.1540589491       -0.2218084191
 H          2.3215135967        0.1315438880       -4.1169323056
 H          1.5089645470       -4.3769542648        3.8356664879
 H          2.0308786401       -4.2697228771        0.8252326182
 H         -0.5897267081        4.5977878314        4.5440011820
 H         -2.3010075466        2.3385746369        3.4049093458
 H         -2.0784490029        3.4150058174       -2.3009689540
 H         -4.4529686117        1.7809548888       -3.3113249892
 H          4.9045853940       -1.1079500110       -1.2753925669
 H          4.5680701032       -0.1550407250       -4.1604525428
 C         -5.3067504607       -3.6981847403       -3.7482367595
 C         -6.8249054647       -3.5979385738       -3.9001053359
 O         -4.8880666827       -3.0957974474       -2.5322720678
 C         -5.5415417579       -3.7027912841       -1.4272715122
 C         -7.0591863735       -3.6028245397       -1.5809958207
 O         -7.4776289464       -4.1997341173       -2.7962807863
 H         -4.7988035649       -3.1606900375       -4.5497493076
 H         -7.1186287759       -2.5401386133       -3.9700410805
 H         -5.2435624551       -4.7584760410       -1.3628058181
 H         -7.3620097369       -2.5455636222       -1.5662175808
 H         -7.1621673629       -4.1358312022       -4.7860538333
 H         -5.2046254554       -3.1680052995       -0.5397880130
 H         -7.5656688219       -4.1446427855       -0.7825052396
 H         -5.0030305055       -4.7544052895       -3.7544384423