142
-211.12660198
 C          3.0301808773       -6.8224719816        2.5968764122
 C          2.5564904210       -6.9842465875        1.1561656740
 C         -3.7960900409        3.8531898995        4.8884090112
 C         -4.3743576836        3.7440481621        3.4813357938
 C         -2.9747329027        5.3150258090       -3.8162649583
 C         -2.9990816212        4.7327086803       -5.2257647380
 C          8.5369134662       -0.1561709788       -1.4704096389
 C          8.4453803734       -0.6580794308       -2.9077058842
 C          3.4407869304       -5.3783093567        2.8596666557
 C          1.3947064493       -6.0405675741        0.8705103719
 C         -2.6224512872        2.8949897099        5.0560430092
 C         -3.2992532628        4.0338414874        2.4402485010
 C         -3.1317197394        4.2079569670       -2.7800515922
 C         -1.8981918824        3.6912801032       -5.3896168511
 C          7.4479899952        0.8742052596       -1.1972420205
 C          7.0683682402       -1.2556545477       -3.1722111473
 C          1.4075108991        0.1567891834        3.6693641181
 C         -0.3228349161       -0.6499024223       -0.6415956101
 C          1.8759119253        1.8687390736        0.2992801898
 C          1.3187608229        0.0378813315       -4.0093067274
 C          3.6666251832       -0.4000328006        3.0481562081
 C         -1.6695313235       -2.1378943974        0.6881302225
 C          3.0402911588        1.9072739215        3.4016363465
 C         -2.6377425162       -0.1237826434       -0.2334356999
 C          1.0411141425        4.0880202450       -0.1243592703
 C         -0.2086549717       -1.8051576407       -3.7420447571
 C          3.1640517619        3.3926185071       -1.0479553714
 C          2.1587786159       -2.1289998655       -3.3784088305
 C          1.9775549030       -2.2040030490        3.2527678021
 C          0.7031324295       -2.7051560130        0.2601588772
 C          0.6995474273        2.5176228283        3.8808111473
 C         -1.2619433776        1.4056546786       -1.6159538410
 C         -0.2854946077        2.5310258553        1.2742791473
 C         -1.1118485043        0.4380103169       -4.2281985137
 C          4.0483614768        1.1221299478       -0.6004475607
 C          3.7310492479       -0.2216149371       -3.5842456497
 C          2.3597746369       -0.8005082172        3.3396074132
 C         -0.4439317672       -1.8221078830        0.0987547836
 C          1.7337484699        1.5121488733        3.6856671593
 C         -1.4119711190        0.2010714933       -0.8134859741
 C          0.8863904307        2.8343937690        0.4664477877
 C          0.0165426589       -0.4594248594       -4.0284815078
 C          3.0188609102        2.1409011597       -0.4469005801
 C          2.3892089542       -0.7824998069       -3.6733496559
 C          3.9839288927        0.9423523068        3.0955804215
 C         -2.7401516740       -1.2821950290        0.5144025149
 C          2.1722900718        4.3394552962       -0.8784410586
 C          0.8684021854       -2.6161337622       -3.4296188158
 C          2.2835323692       -4.4189764432        2.5850941150
 C          1.7923656458       -4.5851555070        1.1230328506
 C         -1.5271648361        3.1812373427        4.0318326360
 C         -2.1203774456        3.0769139271        2.5876421237
 C         -2.0321183866        3.1605593704       -2.9246273082
 C         -2.0510257823        2.5644954688       -4.3709840125
 C          6.0585600824        0.2868390308       -1.4510232498
 C          5.9644098274       -0.2323363032       -2.9097920049
 Br         5.7699050616        1.4932296288        2.6953113267
 Br        -4.4123603489       -1.7068559296        1.3363830694
 Br         2.3606001988        6.0446605812       -1.7202153112
 Br         0.5500077139       -4.4566461244       -3.0242178336
 N          2.7370487902       -3.0696629791        2.7347683268
 N          0.6430219429       -3.7544036097        0.9574217684
 N         -0.5040371401        2.1943623185        4.1021965453
 N         -2.2538262111        2.0792963131       -2.0191284591
 N         -1.0794546853        3.4296309742        1.6770759065
 N         -0.9423301673        1.6746939346       -4.4375792381
 N          5.0823954296        1.3173565974       -1.2957888483
 N          4.6867075032       -0.8597570330       -3.0607933239
 H          2.2238395521       -7.1012856824        3.2789309546
 H          3.8778907386       -7.4821607091        2.7894961334
 H          2.2380225497       -8.0125914734        0.9786510924
 H          3.3799550510       -6.7639341104        0.4734091093
 H         -3.4579931662        4.8767846012        5.0655193230
 H         -4.5637588446        3.6188319273        5.6275869547
 H         -4.7676905527        2.7368279352        3.3265574008
 H         -5.1974927810        4.4498249838        3.3595833146
 H         -2.0272786210        5.8335120924       -3.6528505309
 H         -3.7810116353        6.0405278171       -3.6974848486
 H         -2.8589051420        5.5268436531       -5.9608182538
 H         -3.9698295692        4.2675568825       -5.4120441044
 H          9.5139139285        0.2955551970       -1.2921392499
 H          8.4233640324       -0.9961053085       -0.7816344312
 H          9.2111389749       -1.4137344970       -3.0909225881
 H          8.6195592389        0.1725302355       -3.5953496620
 H          3.7579122713       -5.2538007581        3.8971030127
 H          4.2773754656       -5.1009085617        2.2161726913
 H          1.0700099924       -6.1361714483       -0.1674214675
 H          0.5459827580       -6.2799960899        1.5130231323
 H         -2.9545362476        1.8636648393        4.9261715092
 H         -2.1942921172        2.9881998785        6.0562216640
 H         -2.9303921401        5.0550683858        2.5489461870
 H         -3.7063681532        3.9264953356        1.4332786824
 H         -4.0973126659        3.7129984960       -2.8957909894
 H         -3.0827917403        4.6223061295       -1.7715123540
 H         -0.9185713275        4.1513104669       -5.2499617674
 H         -1.9281518622        3.2588401061       -6.3918525166
 H          7.5767649304        1.7421132164       -1.8458086484
 H          7.4958108699        1.2163679329       -0.1616246508
 H          6.8998605339       -2.1169177954       -2.5235729695
 H          6.9911098944       -1.5934842590       -4.2076761744
 H          0.3905008611       -0.1266549178        3.8919292562
 H          0.6232915755       -0.3985295266       -1.0998105784
 H          1.7564057530        0.9012359262        0.7661173598
 H          1.4699919380        1.0821550105       -4.2345993910
 H          4.3980328097       -1.1495068651        2.7912085957
 H         -1.7522447165       -3.0460849058        1.2630132714
 H          3.3084064430        2.9530355052        3.4101462691
 H         -3.4758055304        0.5392475519       -0.3763697093
 H          0.2712985632        4.8298437495        0.0150357509
 H         -1.2112879865       -2.2053687533       -3.7530219271
 H          4.0505201555        3.5925012355       -1.6279408544
 H          2.9948025519       -2.7575180073       -3.1162524415
 H          0.9794566356       -2.4508136121        3.6404648561
 H          1.6192097663       -2.3979599930       -0.2685913761
 H          1.0179487949        3.5650800828        3.7759265618
 H         -0.2256265604        1.6848144271       -1.8559110682
 H         -0.4269242952        1.4681929310        1.5188923359
 H         -2.1109117084       -0.0120318523       -4.1344787011
 H          3.8650246448        0.1761376722       -0.0668253411
 H          3.8473643635        0.7984160950       -3.9759733037
 H          1.4279592341       -4.6383245204        3.2459980428
 H          2.6167516002       -4.2860960973        0.4521242382
 H         -1.1312003494        4.2045181750        4.1526817976
 H         -2.4427360696        2.0311677750        2.4531905159
 H         -1.0367246471        3.6126337674       -2.7822513295
 H         -3.0152739291        2.0429902327       -4.5006240908
 H          5.8683551170       -0.5650471283       -0.7747668694
 H          6.0725821835        0.6398261065       -3.5764966017
 C        -15.3745781620       -4.9437513060        1.9911333203
 C        -14.4710491745       -4.0304289509        1.1601816081
 O        -14.6226004225       -5.9992240577        2.5662299534
 C        -13.5667259525       -5.4851309160        3.3609952113
 C        -12.6635856004       -4.5713425504        2.5301669812
 O        -13.4163541896       -3.5159726449        1.9556301653
 H        -16.1333011675       -5.4151196620        1.3662708005
 H        -14.0520936390       -4.5968888287        0.3158757202
 H        -13.9851319606       -4.9193508183        4.2059961255
 H        -12.1822272245       -5.1558276985        1.7327953224
 H        -15.0238090855       -3.1665710870        0.7906756547
 H        -13.0138706399       -6.3493444416        3.7293993457
 H        -11.9047423794       -4.0999608605        3.1547749562
 H        -15.8556580414       -4.3585804371        2.7882563191