142
-211.12838860
 C          4.4060439739       -6.2920434976        2.5738519833
 C          3.8020785155       -6.5815158311        1.2033029569
 C         -4.2318231192        2.5720181916        6.0096397038
 C         -5.0187401936        2.1309820965        4.7793552216
 C         -4.4911664418        3.2362940237       -4.7539721904
 C         -4.5825297141        2.3154378936       -5.9664570109
 C          7.5021392804        0.2529198409       -1.5283865467
 C          7.5491719978       -0.3970311436       -2.9075196941
 C          4.5433451342       -4.7888642745        2.7884262122
 C          2.4524945326       -5.8885856152        1.0560200557
 C         -2.8419257433        1.9459423563        6.0066377021
 C         -4.2657113422        2.4918926119        3.5036682751
 C         -4.3340036098        2.4215692938       -3.4749462500
 C         -3.3509941324        1.4208912849       -6.0492734642
 C          6.2034697863        1.0299115209       -1.3479890647
 C          6.3424370638       -1.3068705186       -3.1080258400
 C          1.4622513217        0.1371607276        3.9883246822
 C         -0.4500325079       -1.2777870751       -0.7800859503
 C          0.8096687276        1.0731548730        0.6157965623
 C          0.5185143748       -1.3143043978       -4.1981767186
 C          3.6846664056        0.1410464006        3.0600359276
 C         -1.2682617912       -2.5231493064        1.1084956782
 C          2.5372253702        2.2284134525        3.4696153742
 C         -2.7121402282       -0.9467960885       -0.0261905666
 C         -0.6538905147        2.8583800966       -0.0654287330
 C         -0.6771539287       -3.3296672545       -3.6456137260
 C          1.4074502499        2.4490399718       -1.2651550784
 C          1.7136481936       -3.2069682120       -3.3103527035
 C          2.5276392344       -2.0164821666        3.4656449427
 C          1.0591763610       -2.8826997234        0.3177243988
 C          0.1956206701        2.2426226760        4.2460495743
 C         -1.8696569402        0.3140578027       -1.9949561937
 C         -1.2574964560        1.4487406680        1.8881309710
 C         -1.9443783018       -1.3336424992       -4.3586992055
 C          2.9360898371        0.6291506243       -0.5428237091
 C          2.9199967547       -1.0784475294       -3.7317591317
 C          2.5721095140       -0.5621283266        3.5288350916
 C         -0.2374712785       -2.2268880984        0.2152695685
 C          1.4254030590        1.5296707777        3.9369965376
 C         -1.6820058526       -0.6429118948       -0.9147708896
 C         -0.3637590739        1.8010829201        0.7948059087
 C         -0.6832229077       -2.0149100753       -4.1080455803
 C          1.7066304732        1.3970671012       -0.3977979766
 C          1.7105816389       -1.8890855770       -3.7739153101
 C          3.6515813592        1.5207770640        3.0552780565
 C         -2.4796980072       -1.8713406503        0.9757779994
 C          0.2313987441        3.1520489898       -1.0863271317
 C          0.5243438358       -3.9064487492       -3.2735831016
 C          3.1882028753       -4.0956787394        2.6513313105
 C          2.5951836095       -4.3762839422        1.2497548029
 C         -2.0777271386        2.3190343906        4.7380420434
 C         -2.8867893320        1.8411444716        3.4901657595
 C         -3.0979604859        1.5306452897       -3.5432623363
 C         -3.1977726842        0.5839576204       -4.7812647752
 C          4.9910537581        0.1115744614       -1.5282476409
 C          5.0390896273       -0.5267281483       -2.9367058088
 Br         5.1734780127        2.4877584890        2.4237933419
 Br        -3.8716519148       -2.2440717005        2.2268926044
 Br        -0.1955792117        4.5637047393       -2.2969644559
 Br         0.5248650926       -5.7121795340       -2.6498548208
 N          3.3521491264       -2.6788751989        2.7764762738
 N          1.3032489109       -3.7672604998        1.1834462791
 N         -0.8265072162        1.6422235481        4.6868820304
 N         -3.0090324637        0.7070532615       -2.3764019999
 N         -2.1562680574        2.2257200026        2.3207780121
 N         -1.9786332026       -0.1510608252       -4.8053757855
 N          3.7954609590        0.8898402807       -1.4288664768
 N          3.9241505757       -1.4180722942       -3.0465952367
 H          3.7632684473       -6.7121402206        3.3506590349
 H          5.3871092912       -6.7626490658        2.6574580473
 H          3.6708077385       -7.6565306849        1.0706486860
 H          4.4792207113       -6.2262806729        0.4233929723
 H         -4.1389348557        3.6608236914        6.0128806605
 H         -4.7604363267        2.2768284169        6.9174916966
 H         -5.1732689879        1.0504290307        4.8112936820
 H         -5.9991534285        2.6097834027        4.7726995768
 H         -3.6328236908        3.9021516122       -4.8656864284
 H         -5.3890062777        3.8522134846       -4.6836976497
 H         -4.6629700731        2.9069065142       -6.8798369985
 H         -5.4776626812        1.6942838658       -5.8865437834
 H          8.3474127790        0.9315514825       -1.4041021553
 H          7.5734926771       -0.5183175925       -0.7582982596
 H          8.4657185782       -0.9793558227       -3.0160028132
 H          7.5499973295        0.3794106516       -3.6757704968
 H          4.9450977327       -4.5801006836        3.7821226252
 H          5.2267257273       -4.3620531114        2.0522967726
 H          2.0321014140       -6.0800523866        0.0673955466
 H          1.7484324448       -6.2671362884        1.7986672317
 H         -2.9166124657        0.8586284973        6.0571798485
 H         -2.2685256795        2.2865213202        6.8714957926
 H         -4.1343236369        3.5737257231        3.4349646255
 H         -4.8257445855        2.1583890134        2.6283937745
 H         -5.2083415456        1.7885970226       -3.3159600994
 H         -4.2355874021        3.0864487469       -2.6155331753
 H         -2.4516387973        2.0257932321       -6.1744572654
 H         -3.4265592463        0.7458359842       -6.9043355675
 H          6.1383639243        1.8353640157       -2.0811960758
 H          6.1626740950        1.4776119264       -0.3537194834
 H          6.3567669212       -2.1203971695       -2.3806620455
 H          6.3582550492       -1.7475538776       -4.1070344758
 H          0.5919906902       -0.3838543008        4.3561686970
 H          0.3490920118       -1.0394839857       -1.4671270842
 H          1.0339372914        0.2535693562        1.2831063451
 H          0.4917749335       -0.2991245571       -4.5625980574
 H          4.5436207053       -0.4083417253        2.7097296736
 H         -1.0972098046       -3.2539122448        1.8825715207
 H          2.5247081607        3.3070151874        3.4248050173
 H         -3.6632090075       -0.4497042843       -0.1307350457
 H         -1.5643786973        3.4177713941        0.0773370656
 H         -1.5990813411       -3.8864703926       -3.5711143411
 H          2.1012901175        2.6908658490       -2.0542845039
 H          2.6426675780       -3.6483559294       -2.9872039152
 H          1.7009861555       -2.4922041921        4.0111979285
 H          1.8099684072       -2.5528153956       -0.4176905691
 H          0.1916990919        3.3188403487        4.0177986105
 H         -0.9405622009        0.6558845846       -2.4745989634
 H         -1.0779281385        0.4571245827        2.3286408372
 H         -2.8546523102       -1.8819822045       -4.0745382206
 H          3.0644750409       -0.1903882485        0.1819071515
 H          2.8778643086       -0.1291563466       -4.2836966592
 H          2.4754590940       -4.4878080083        3.3970222927
 H          3.2808301745       -3.9584339070        0.4912098218
 H         -1.9590764551        3.4145356796        4.6597711418
 H         -2.9722191932        0.7458388144        3.5694084684
 H         -2.1878483061        2.1362267427       -3.6822568198
 H         -4.0756921454       -0.0695080801       -4.6337645537
 H          5.0121947387       -0.6985117742       -0.7777394062
 H          4.9778728164        0.2914663337       -3.6748474808
 C         -6.2757200377        3.3083051618       -0.0185172674
 C         -5.9368258996        4.7301941150        0.4322189343
 O         -6.7131593242        2.5263593001        1.0798423223
 C         -7.8305322595        3.1298504396        1.7099750017
 C         -7.4895157607        4.5508144256        2.1625270668
 O         -7.0542446400        5.3332424470        1.0629845759
 H         -5.3948149825        2.8061927039       -0.4175450354
 H         -5.0898165071        4.7006129654        1.1321197131
 H         -8.6755290869        3.1608648248        1.0071526768
 H         -6.6963951476        4.5139641771        2.9223265390
 H         -5.6923381301        5.3620877940       -0.4218836321
 H         -8.0787558375        2.4965356061        2.5615333547
 H         -8.3691604764        5.0534599576        2.5649178048
 H         -7.0660284872        3.3432639454       -0.7820095107