142
-211.12982824
 C          1.0129647515       -6.6968867616        2.3494174162
 C          0.3061486992       -6.6555623739        0.9986474428
 C         -2.7896367718        5.1394778285        5.8331865490
 C         -3.5914760027        5.1908853823        4.5365122163
 C         -2.9218333388        6.6092392710       -3.2643010613
 C         -3.3447418605        6.0457943053       -4.6173108627
 C          6.8179950146       -1.9673781154       -2.2345622362
 C          6.3965499025       -2.3919140585       -3.6376319368
 C          1.7821906680       -5.4021598257        2.5879644542
 C         -0.6298887389       -5.4555566806        0.9281018617
 C         -1.8577988577        3.9327823829        5.8376396165
 C         -2.6563550091        5.2333861427        3.3331078759
 C         -3.1732264684        5.5889614743       -2.1595932068
 C         -2.6017650812        4.7472416144       -4.9107814852
 C          6.1135069899       -0.6762364552       -1.8359685200
 C          4.8836727457       -2.5649503046       -3.7074412729
 C          1.2061804114        0.3863886658        3.8519640414
 C         -1.2939299153        0.1900486408       -0.3243803391
 C          1.3800974313        1.8269764341        0.4763861289
 C         -0.3105810340        0.3261209384       -3.8437374098
 C          3.1620806401       -0.6147854013        2.8651172440
 C         -2.6669709700       -0.9281638803        1.3058887568
 C          3.1147336096        1.7570776130        3.3222175902
 C         -3.2885825397        1.2631644450        0.4935348610
 C          1.1051671757        4.1888319200        0.0943583672
 C         -2.2465680932       -0.9990187355       -3.2981778826
 C          2.7773158695        2.9459268834       -1.1330150602
 C         -0.0456316733       -1.9950613084       -3.2572903471
 C          1.1694203051       -2.0183150510        3.3133932956
 C         -0.6241778711       -2.0489567671        0.4574884303
 C          1.0680372124        2.8374810617        4.1662217838
 C         -1.8792205696        2.4111002770       -1.1955100576
 C         -0.3329569862        3.0380990183        1.7560682437
 C         -2.5331161609        1.4098369684       -3.7280042358
 C          3.0742254083        0.5157888352       -0.7430451541
 C          1.9624493145       -0.6199180334       -3.7256018425
 C          1.8624761790       -0.7376103786        3.3638966742
 C         -1.5416346143       -0.9181514935        0.4797707936
 C          1.8163622031        1.6394401933        3.8166635334
 C         -2.1588646063        1.2813114782       -0.3233878312
 C          0.7246637578        3.0229894425        0.7577888586
 C         -1.6894169444        0.2259379799       -3.6631508483
 C          2.4063665223        1.7792330698       -0.4621017647
 C          0.5163869934       -0.7699994775       -3.6264404502
 C          3.7664377718        0.6257618921        2.8641645925
 C         -3.5155759737        0.1622543339        1.2988769351
 C          2.1197232490        4.1260328972       -0.8430654020
 C         -1.4146359888       -2.0886072346       -3.1117453327
 C          0.8517140468       -4.1916888250        2.5254031977
 C          0.1328008377       -4.1483283216        1.1530072197
 C         -0.9037410670        3.9726966812        4.6466782538
 C         -1.7317904604        4.0204709437        3.3201888821
 C         -2.4224583592        4.2906339392       -2.4366810154
 C         -2.8616821721        3.7101165384       -3.8212781523
 C          4.5932527117       -0.8414861072       -1.8905646676
 C          4.1650787951       -1.2741835598       -3.3161689567
 Br         5.5396391655        0.7978785293        2.1736776929
 Br        -5.0454244356        0.1554298374        2.4434427677
 Br         2.6169442322        5.7189520027       -1.7738885617
 Br        -2.1847318302       -3.7599566226       -2.6027736246
 N          1.6184965676       -2.9885572981        2.6416226397
 N         -0.7977265201       -3.0657116460        1.1831124844
 N         -0.1273550122        2.7811749729        4.5786892633
 N         -2.7333652210        3.3095279147       -1.4465163144
 N         -0.8031037365        4.1085718601        2.2389127065
 N         -2.0660866939        2.5474189165       -4.0276720929
 N          3.9778302112        0.4179037067       -1.6172877101
 N          2.7522941388       -1.5034702472       -3.2899841129
 H          0.2741772061       -6.8327332443        3.1422085286
 H          1.7026747153       -7.5416465729        2.3846491816
 H         -0.2684092547       -7.5699095736        0.8454736905
 H          1.0489066210       -6.5833037149        0.2009269716
 H         -2.2000615243        6.0536875213        5.9336970324
 H         -3.4652853746        5.0784184716        6.6878260733
 H         -4.2301959661        4.3073704088        4.4681882444
 H         -4.2339394955        6.0727881569        4.5295116974
 H         -1.8590786623        6.8603794967       -3.2907123742
 H         -3.4788364536        7.5225820096       -3.0495807037
 H         -3.1339612442        6.7699552344       -5.4058436419
 H         -4.4204652296        5.8553507237       -4.6127540143
 H          7.8977707867       -1.8153621754       -2.1967947517
 H          6.5635026056       -2.7553208516       -1.5223161917
 H          6.8823284423       -3.3313185755       -3.9068190191
 H          6.7092061699       -1.6320506678       -4.3572885951
 H          2.2666076121       -5.4194902479        3.5665127121
 H          2.5581559876       -5.2792370973        1.8304221906
 H         -1.1190362642       -5.4084924368       -0.0462774896
 H         -1.4054559841       -5.5354120723        1.6910785808
 H         -2.4351794664        3.0082559962        5.7866574292
 H         -1.2667852323        3.9114857897        6.7555799534
 H         -2.0438150507        6.1360867270        3.3586163158
 H         -3.2302336432        5.2411569368        2.4046683002
 H         -4.2383439415        5.3641444426       -2.0841228576
 H         -2.8417232383        5.9812204219       -1.1964048715
 H         -1.5272642396        4.9294827950       -4.9650863577
 H         -2.9227094957        4.3327666590       -5.8686874600
 H          6.3949766657        0.1328140826       -2.5117545826
 H          6.3963383867       -0.3821778628       -0.8234241544
 H          4.5624287592       -3.3569934063       -3.0288555593
 H          4.5771540436       -2.8423242091       -4.7181375225
 H          0.2002522140        0.3178425567        4.2362087379
 H         -0.4250190095        0.2027171929       -0.9669460846
 H          1.0912044263        0.9275038387        1.0013706294
 H          0.1004215125        1.2834389959       -4.1245083572
 H          3.6628347977       -1.4922462542        2.4884625144
 H         -2.8499222808       -1.7894664420        1.9279236227
 H          3.5996831256        2.7209943671        3.2867016895
 H         -3.9557840557        2.1099107436        0.4835070433
 H          0.5953412022        5.1110145658        0.3225211289
 H         -3.3124378231       -1.0918841582       -3.1532984620
 H          3.5722111671        2.8993665460       -1.8598053926
 H          0.6036667496       -2.8398501039       -3.0920188599
 H          0.2184654072       -2.0695413623        3.8613952181
 H          0.2258533676       -1.9554762061       -0.2373387443
 H          1.5844909410        3.7934320849        3.9948990707
 H         -0.8709683633        2.4220212048       -1.6354739519
 H         -0.6906362089        2.0467795430        2.0713373230
 H         -3.5867281944        1.2642961219       -3.4474592507
 H          2.7359976449       -0.3431442725       -0.1417469541
 H          2.3159341424        0.3214448390       -4.1684781903
 H          0.0728922932       -4.2564711389        3.3039625069
 H          0.8995770910       -4.0086535404        0.3703391104
 H         -0.2744040079        4.8792353009        4.6759974815
 H         -2.3131679607        3.0848058724        3.2787385486
 H         -1.3369856294        4.4715779798       -2.5014965086
 H         -3.9375098106        3.4719130880       -3.7531096141
 H          4.2633401665       -1.6222767496       -1.1824738777
 H          4.4325677856       -0.4540050193       -4.0037737858
 C         -3.0555638347       -9.0827756335       -1.8778329149
 C         -1.9384399499       -9.7495476715       -1.0726884222
 O         -4.3048494376       -9.2526855683       -1.2287542355
 C         -4.2583341018       -8.7217655420        0.0851346986
 C         -3.1439520142       -9.3898191452        0.8929313086
 O         -1.8927171220       -9.2292853076        0.2456565238
 H         -3.1567050288       -9.5455867731       -2.8595476970
 H         -2.1115740162      -10.8346107711       -1.0321479005
 H         -4.0816899538       -7.6378496866        0.0365477936
 H         -3.3635356700      -10.4613389055        1.0054267997
 H         -0.9639763908       -9.5442267805       -1.5157022244
 H         -5.2337745271       -8.9208270738        0.5292836385
 H         -3.0418829723       -8.9267014306        1.8743064924
 H         -2.8420342081       -8.0102221467       -1.9896632483