142
-211.13040459
 C          0.6744123163       -7.0353321083        2.3462557828
 C         -0.0143521213       -7.0682711677        0.9858151772
 C         -3.8169615452        4.5901627920        5.6312529246
 C         -4.6313969998        4.5635023378        4.3417497073
 C         -3.9089719591        5.9767369171       -3.4839775064
 C         -4.2859210960        5.4002328362       -4.8449968694
 C          6.3236952092       -1.7873122041       -2.3543278782
 C          5.9432140367       -2.3036246057       -3.7382854512
 C          1.3692772595       -5.6946141926        2.5550869791
 C         -1.0145258773       -5.9245646300        0.8692745370
 C         -2.8048988674        3.4501319117        5.6466962362
 C         -3.7115178274        4.6504627947        3.1291175125
 C         -4.1240269815        4.9385787037       -2.3883983785
 C         -3.4743862715        4.1426329132       -5.1350684800
 C          5.5009098258       -0.5538320115       -2.0020419233
 C          4.4527492601       -2.6173626087       -3.7956977029
 C          0.4516789429        0.0783501897        3.6845612969
 C         -1.9763706450       -0.3459689512       -0.5114983243
 C          0.5570533473        1.5314328208        0.2828761999
 C         -0.9460898756       -0.1296903508       -4.0495929651
 C          2.4689861383       -0.8247063066        2.7281920109
 C         -3.3201281337       -1.5309017997        1.0963629045
 C          2.2873034993        1.5465650755        3.1568775989
 C         -4.0532789970        0.6101871067        0.2452524631
 C          0.0551063103        3.8470429408       -0.1486134048
 C         -2.7931603880       -1.5725972548       -3.4959892652
 C          1.8195336161        2.7377414212       -1.3742645583
 C         -0.5303965801       -2.4182884510       -3.4249741057
 C          0.5546395811       -2.3318955128        3.1796143749
 C         -1.1927593113       -2.5335196185        0.3139856548
 C          0.1741297918        2.5195308980        3.9721375194
 C         -2.6757753158        1.8299348151       -1.4172619721
 C         -1.2483424262        2.6091286959        1.5587667546
 C         -3.2323962766        0.8092106655       -3.9549503925
 C          2.3603584037        0.3608115943       -0.9250104589
 C          1.3831426846       -0.9143044219       -3.9031654016
 C          1.1734953833       -1.0135310877        3.2165327643
 C         -2.1762838420       -1.4592526878        0.2991863276
 C          0.9923975218        1.3627425667        3.6400967391
 C         -2.9061781227        0.6902744155       -0.5433918495
 C         -0.2040881182        2.6671234202        0.5475134772
 C         -2.3161466222       -0.3184405795       -3.8746178339
 C          1.5729388424        1.5589633513       -0.6679975723
 C         -0.0491732284       -1.1643361609       -3.8105652701
 C          3.0041230383        0.4470924076        2.7190963689
 C         -4.2340451855       -0.4954659071        1.0555603163
 C          1.0550821069        3.8563082245       -1.1034714870
 C         -1.8914345451       -2.6011940474       -3.2874937493
 C          0.3751516686       -4.5392149306        2.4488560821
 C         -0.3275753470       -4.5714058458        1.0672604634
 C         -1.8651784220        3.5345296530        4.4465727967
 C         -2.7036663730        3.5055463591        3.1264560311
 C         -3.3020801591        3.6829454205       -2.6605971029
 C         -3.6924751049        3.0873270979       -4.0538663058
 C          4.0040104645       -0.8668566614       -2.0449238442
 C          3.6228542639       -1.3800720736       -3.4567327771
 Br         4.7736798516        0.7047469298        2.0475881392
 Br        -5.7909587549       -0.5869064737        2.1593017778
 Br         1.3779454572        5.4625769934       -2.0860016475
 Br        -2.5527120778       -4.3128825331       -2.7557388532
 N          1.0743329366       -3.2933058365        2.5465197758
 N         -1.3186622378       -3.5432529833        1.0590731008
 N         -1.0139352880        2.3949300533        4.3901093471
 N         -3.5724892644        2.6833999539       -1.6775189936
 N         -1.7912696953        3.6464740503        2.0369208136
 N         -2.8310070884        1.9719118116       -4.2537881841
 N          3.2675211885        0.3322305617       -1.8007409292
 N          2.2327238004       -1.7213839560       -3.4329903861
 H         -0.0669718890       -7.1876938915        3.1336880629
 H          1.4087477611       -7.8396636030        2.4143749457
 H         -0.5351600710       -8.0174672961        0.8511618229
 H          0.7337511652       -6.9791725577        0.1950696160
 H         -3.2905143010        5.5441383613        5.7102756971
 H         -4.4793032701        4.4982132978        6.4935041754
 H         -5.2076184515        3.6367335072        4.2941214823
 H         -5.3337209535        5.3983825853        4.3262107038
 H         -2.8596885736        6.2802380015       -3.4951064261
 H         -4.5133245893        6.8601344776       -3.2720812802
 H         -4.1021039488        6.1383403768       -5.6273054037
 H         -5.3506319386        5.1556911880       -4.8550942951
 H          7.3839889173       -1.5304511835       -2.3302985955
 H          6.1462116738       -2.5666402159       -1.6102802488
 H          6.5129251557       -3.2048292539       -3.9704778915
 H          6.1847170865       -1.5480937932       -4.4897198160
 H          1.8427676241       -5.6585918294        3.5381420551
 H          2.1444133908       -5.5519250695        1.8005587729
 H         -1.4928298486       -5.9324795818       -0.1119098310
 H         -1.7953502938       -6.0261509073        1.6245304818
 H         -3.3183644218        2.4877814639        5.6158036299
 H         -2.2064583731        3.4842826872        6.5594415700
 H         -3.1635019350        5.5940655532        3.1340932049
 H         -4.2920859774        4.6022179285        2.2060434664
 H         -5.1769903400        4.6579510142       -2.3312767360
 H         -3.8294517038        5.3419185875       -1.4179025385
 H         -2.4101132834        4.3800896105       -5.1757920325
 H         -3.7624573594        3.7171580536       -6.0985897232
 H          5.7036408939        0.2537105847       -2.7076701683
 H          5.7540826780       -0.1981876878       -1.0015602173
 H          4.2073816828       -3.4047574232       -3.0811784312
 H          4.1724779871       -2.9644538159       -4.7924633213
 H         -0.5524241955       -0.0406718786        4.0610637505
 H         -1.0937799828       -0.2860055594       -1.1324459215
 H          0.3597505313        0.6210645945        0.8310237384
 H         -0.5981829378        0.8488757656       -4.3420915512
 H          3.0204398349       -1.6769205915        2.3657321957
 H         -3.4660410812       -2.3962057633        1.7226140801
 H          2.7188254701        2.5353427456        3.1152116898
 H         -4.7700307032        1.4147288148        0.2093303266
 H         -0.5351501070        4.7227770057        0.0677230040
 H         -3.8513810775       -1.7345902196       -3.3562335859
 H          2.6045069666        2.7481821326       -2.1131610400
 H          0.1725763668       -3.2148594817       -3.2408516188
 H         -0.4058063142       -2.4226008127        3.7050669909
 H         -0.3386127819       -2.4042480870       -0.3695964020
 H          0.6308794895        3.5024739101        3.7851086848
 H         -1.6646688225        1.8926889027       -1.8458678195
 H         -1.5275011647        1.5964385689        1.8852178975
 H         -4.2778369272        0.6006235432       -3.6841066340
 H          2.1107011560       -0.5135654872       -0.3028807453
 H          1.6708893256        0.0365318384       -4.3729198202
 H         -0.4098490946       -4.6272818747        3.2186560083
 H          0.4394259525       -4.4093422566        0.2892220656
 H         -1.2964605875        4.4806343498        4.4566990294
 H         -3.2173778724        2.5305668125        3.1017471248
 H         -2.2268866023        3.9210447311       -2.7106544842
 H         -4.7544369909        2.7906075546       -4.0004262727
 H          3.7555105057       -1.6577404951       -1.3162777802
 H          3.8280064747       -0.5645451731       -4.1711612533
 C          7.9364318477       -4.5221570754        2.1750524906
 C          7.5597177668       -3.6819941500        0.9535948821
 O          7.1318485789       -4.1736601984        3.2894799401
 C          5.7579039734       -4.3301938706        2.9798574665
 C          5.3827263105       -3.4895882338        1.7587573654
 O          6.1842815218       -3.8409049920        0.6440095604
 H          8.9678307505       -4.3340840042        2.4730203501
 H          7.7679434128       -2.6218933688        1.1568330053
 H          5.5460330791       -5.3900263000        2.7767191731
 H          5.5293465842       -2.4246628082        1.9894926754
 H          8.1111579921       -4.0085453428        0.0720237302
 H          5.2059536354       -4.0036000605        3.8614251101
 H          4.3492181101       -3.6759484864        1.4657273399
 H          7.8013560039       -5.5890836787        1.9447291524