142
-211.12653613
 C          5.1703933023       -5.8659283820        4.0921345322
 C          4.1269073084       -6.5330326910        3.2019804841
 C         -1.9618852107        4.5323551059        6.5415289830
 C         -3.0807675499        3.9311159518        5.6974062731
 C         -5.5395750313        3.0785319720       -1.3717872214
 C         -6.0777895276        2.0626576904       -2.3739037740
 C          6.6366569180       -0.4669027624       -3.9416979839
 C          6.0072155520       -1.4290300944       -4.9438267930
 C          5.3376653321       -4.4009171441        3.7058584842
 C          2.7954271761       -5.7992169242        3.3037695310
 C         -0.6657056869        3.7579910737        6.3331708318
 C         -2.6939529322        3.9331997155        4.2229070878
 C         -4.9602195702        2.3680087483       -0.1539864663
 C         -4.9747983965        1.0996423671       -2.7974621970
 C          5.5940128239        0.5152519374       -3.4219017968
 C          4.8448527031       -2.1768811173       -4.3012563486
 C          2.7646196973        0.9670368335        3.8924632759
 C         -0.5120041782       -1.3176728783        1.4775335380
 C          1.2599742911        1.5459442685        0.3867777083
 C         -0.7592794381       -1.6506598963       -2.3654003661
 C          4.5452276005        0.3520997708        2.3925818913
 C         -0.7558396138       -2.3473980757        3.6400971306
 C          3.6738388451        2.6068124100        2.3806589031
 C         -2.4427673722       -0.8182655836        2.8284790429
 C         -0.1369323902        3.4482361635       -0.0946812616
 C         -1.5175176447       -3.3955525320       -0.8884426296
 C          1.4210951365        2.6347864916       -1.7543416960
 C          0.7529943866       -3.4091084701       -1.7177806776
 C          3.5716771581       -1.3600391483        3.9009259856
 C          1.2208708852       -2.8950503472        2.2526383129
 C          1.7465066048        3.2184655368        3.7945409733
 C         -2.2076488390        0.2361138022        0.5984505218
 C         -0.3004643870        2.3416809257        2.1168152351
 C         -3.0348220006       -1.5202377153       -1.4065097035
 C          2.8873122223        0.6994106085       -1.2637559253
 C          1.5612631275       -1.5807731558       -3.1870732215
 C          3.6391452649        0.0061433307        3.3988403639
 C         -0.0307809191       -2.1793311804        2.4588450898
 C          2.7627444884        2.2628511016        3.3782901820
 C         -1.7150610227       -0.6380190980        1.6527150793
 C          0.2737943214        2.4459499187        0.7835249432
 C         -1.7681811084       -2.2148390396       -1.5860980031
 C          1.8448396205        1.6385044180       -0.8727683432
 C          0.5021686138       -2.2308503213       -2.4263174109
 C          4.5530876500        1.6460546453        1.9121063357
 C         -1.9435531997       -1.6612075423        3.8041080185
 C          0.4366097767        3.5160877010       -1.3509034075
 C         -0.2630171846       -3.9740128547       -0.9736139445
 C          4.0115666463       -3.6491572847        3.8105429038
 C          2.9453149822       -4.3285683514        2.9110197117
 C         -0.2511287282        3.7626308961        4.8638257397
 C         -1.4007071319        3.1576276292        3.9916811354
 C         -3.8488691257        1.4036109390       -0.5568698427
 C         -4.3918436229        0.3648273355       -1.5928708766
 C          4.4224046887       -0.2188230237       -2.7678049380
 C          3.7856833692       -1.2059154640       -3.7815058169
 Br         5.7914080166        2.1223652786        0.5359894657
 Br        -2.9261910933       -1.8773047614        5.4288055154
 Br        -0.1556774399        4.8682524062       -2.5646409552
 Br         0.0766379435       -5.5857033192       -0.0032888991
 N          4.1832073734       -2.3096812607        3.3361220548
 N          1.7029381033       -3.6606617465        3.1315570283
 N          0.8745109388        2.9161020010        4.6606141312
 N         -3.3957974673        0.6696020912        0.5804391711
 N         -0.9964533388        3.2665275949        2.6270672655
 N         -3.2670984140       -0.4164801636       -1.9806759629
 N          3.4221012475        0.7336773652       -2.4055725290
 N          2.7689629237       -1.9359717938       -3.0874389609
 H          4.8554963687       -5.9332288233        5.1359095200
 H          6.1287650433       -6.3788441158        3.9954568276
 H          3.9892420188       -7.5736070640        3.4998419756
 H          4.4692996801       -6.5218803060        2.1649742187
 H         -1.8113707963        5.5765237623        6.2579012918
 H         -2.2343082290        4.5055245985        7.5977715208
 H         -3.2703952233        2.9054684267        6.0218786158
 H         -4.0001656787        4.5029874777        5.8324292928
 H         -4.7608887616        3.6802170252       -1.8459269425
 H         -6.3384827001        3.7504599413       -1.0543416190
 H         -6.4685309326        2.5758695845       -3.2539588840
 H         -6.8967335681        1.5003901922       -1.9193911020
 H          7.4505209841        0.0865332754       -4.4126934851
 H          7.0531651558       -1.0312417817       -3.1045602245
 H          6.7516439182       -2.1461997324       -5.2937264052
 H          5.6456515430       -0.8687872944       -5.8090117290
 H          6.0662358046       -3.9147545436        4.3579066763
 H          5.6982110709       -4.3203335347        2.6790180529
 H          2.0540557398       -6.2587182425        2.6472083820
 H          2.4157230307       -5.8438068204        4.3257135626
 H         -0.7890544529        2.7218236863        6.6525236456
 H          0.1413177235        4.1987878960        6.9220760403
 H         -2.5507280706        4.9554808158        3.8690942275
 H         -3.4822952722        3.4748838249        3.6231205002
 H         -5.7378437196        1.8019741513        0.3614320406
 H         -4.5479563666        3.0940574138        0.5489489808
 H         -4.1681798235        1.6430928678       -3.2923067148
 H         -5.3636345735        0.3596618957       -3.4999961252
 H          5.2039254601        1.1217958229       -4.2407082496
 H          6.0361639164        1.1874475888       -2.6839944488
 H          5.2005294220       -2.7783809022       -3.4630516289
 H          4.3767417152       -2.8488247448       -5.0236009705
 H          2.0509805898        0.7230407657        4.6640241123
 H          0.0453951771       -1.1802739684        0.5616785986
 H          1.5804844605        0.7750433697        1.0733373850
 H         -0.9755119191       -0.7370864077       -2.8970824616
 H          5.2182247281       -0.4003652440        2.0135506916
 H         -0.3721328774       -3.0133372543        4.3960520251
 H          3.6857999588        3.6064868145        1.9731085474
 H         -3.3748301837       -0.2907664529        2.9524643803
 H         -0.8978598066        4.1426281927        0.2234205473
 H         -2.2887217479       -3.8455978072       -0.2815815586
 H          1.8764879656        2.6954499606       -2.7295772103
 H          1.7356021898       -3.8503364965       -1.7678788286
 H          2.9367455453       -1.5105725036        4.7850450205
 H          1.7104606328       -2.7295751653        1.2800558587
 H          1.7538826163        4.1897382735        3.2788594821
 H         -1.4784316164        0.4864679194       -0.1858098358
 H         -0.0784996198        1.4080274022        2.6538711154
 H         -3.7471498790       -1.9834689478       -0.7084028774
 H          3.1801840704       -0.0340095726       -0.4960176231
 H          1.2427899549       -0.7475874703       -3.8289049095
 H          3.6298075459       -3.6704039124        4.8452505081
 H          3.2803118655       -4.2388484545        1.8628529954
 H         -0.0725925229        4.7916544063        4.5065849410
 H         -1.5118244754        2.1052391994        4.3010701307
 H         -3.0218443951        1.9398458889       -1.0510684108
 H         -5.1650728356       -0.2363313450       -1.0839410671
 H          4.7678466063       -0.8035614942       -1.8974055030
 H          3.3666789986       -0.6051355784       -4.6064354872
 C         -9.3099430347        0.6997221597      -10.1144668048
 C         -8.4280933590        0.1183041785      -11.2214992285
 O         -9.2035034326        2.1131015897      -10.0829196486
 C         -9.5509321977        2.6683471848      -11.3404644216
 C         -8.6681557974        2.0874196119      -12.4468343256
 O         -8.7752374801        0.6738434545      -12.4787880913
 H         -8.9880218723        0.3477420316       -9.1342878355
 H         -7.3724707980        0.3352567898      -11.0027642401
 H        -10.6062107545        2.4501495254      -11.5594543071
 H         -7.6210394250        2.3724805954      -12.2695059449
 H         -8.5753438216       -0.9579847960      -11.3125192620
 H         -9.4048037150        3.7447297216      -11.2495286727
 H         -8.9886111355        2.4398037125      -13.4272974277
 H        -10.3571030354        0.4139240095      -10.2904779339