142
-211.13308477
 C          3.2171723345       -6.4763418604        3.2242702020
 C          2.2423085684       -6.7930540764        2.0946626027
 C         -2.6027891764        4.5931970838        6.3151892709
 C         -3.6256107414        4.2788237280        5.2280809770
 C         -4.9594972101        4.6382656707       -2.5802911116
 C         -5.5009126677        3.7808362717       -3.7198493576
 C          6.6920637815       -1.2293374587       -3.0933165134
 C          6.1025102680       -1.9192158820       -4.3191826578
 C          3.6807376188       -5.0268307188        3.1348944790
 C          1.0492661589       -5.8459053430        2.1395750098
 C         -1.4168896986        3.6393561350        6.2242255250
 C         -2.9791636524        4.3607194992        3.8498130515
 C         -4.6975581045        3.7818705586       -1.3464890214
 C         -4.5266130508        2.6558294470       -4.0504765469
 C          5.7889800635       -0.0885568389       -2.6403305687
 C          4.7019727883       -2.4368854098       -4.0129889235
 C          1.9833433800        0.6202827769        3.9476750742
 C         -1.1898722472       -0.7114216639        0.5365138392
 C          1.1415584093        1.5784743642        0.4813761826
 C         -0.9562601828       -0.8493248848       -3.0870974995
 C          3.8797696756       -0.0616408702        2.6286202762
 C         -1.8753704216       -1.8274696825        2.5559995280
 C          3.3444626413        2.2831874872        2.8598444962
 C         -3.1601775107        0.0351431696        1.7024671837
 C          0.2321800232        3.7512892024       -0.0220348988
 C         -2.3340783864       -2.5276607903       -2.0470359974
 C          1.8827869629        2.7570765354       -1.4824203822
 C          0.0028247417       -2.9684094189       -2.4687977916
 C          2.4294814293       -1.7856093979        3.6638105520
 C          0.1397912464       -2.6209248986        1.3472568979
 C          1.3092867879        2.9987694625        4.0505752020
 C         -2.4641930998        1.1759377517       -0.3879718504
 C         -0.5286176659        2.5436446816        2.0055990083
 C         -3.3135580569       -0.3244852660       -2.5547182018
 C          2.8315983241        0.5250484662       -0.9733825494
 C          1.4512416852       -1.2207713984       -3.4606896458
 C          2.7817153919       -0.3917074897        3.4274146479
 C         -0.9904592480       -1.7123860146        1.4823968018
 C          2.2446369956        1.9574795002        3.6525197064
 C         -2.2697359192        0.1620138890        0.6372177078
 C          0.2840865167        2.6278725180        0.8023675525
 C         -2.1949779152       -1.2538918933       -2.5936799393
 C          1.9445495998        1.6352605597       -0.6536841458
 C          0.1469512794       -1.6906084272       -3.0131791555
 C          4.1465508042        1.2675008400        2.3703206649
 C         -2.9386355501       -0.9497830685        2.6475134424
 C          1.0278079628        3.7910087987       -1.1521570498
 C         -1.2348927434       -3.3649953250       -2.0081261404
 C          2.4923055886       -4.0679114878        3.1877129161
 C          1.5039437298       -4.3885094778        2.0370490152
 C         -0.7493978554        3.7233760695        4.8539718113
 C         -1.8022314665        3.3964884593        3.7434427697
 C         -3.7130983969        2.6596377105       -1.6592123317
 C         -4.2672078174        1.7791610931       -2.8284861766
 C          4.3813549090       -0.5953634899       -2.3195936507
 C          3.7823300363       -1.3025640346       -3.5626900866
 Br         5.6427376565        1.7213318903        1.2719779760
 Br        -4.1357525935       -1.0918667449        4.1293637956
 Br         0.9315395721        5.3183145713       -2.2966754724
 Br        -1.4346533957       -5.1095401732       -1.2682426172
 N          2.9492907911       -2.7244421264        2.9983693350
 N          0.3705622849       -3.5326922814        2.1873972103
 N          0.2700609403        2.7382671170        4.7248686728
 N         -3.5530614089        1.8044007534       -0.5276497888
 N         -1.1509647339        3.5373585177        2.4807024384
 N         -3.2556433008        0.8156341697       -3.1035660115
 N          3.5442538636        0.5202554730       -2.0138747299
 N          2.5133058971       -1.8434882897       -3.1808348481
 H          2.7263572388       -6.6421468303        4.1858627866
 H          4.0827201343       -7.1386899864        3.1690503167
 H          1.8891207499       -7.8217141122        2.1810698336
 H          2.7508242269       -6.6912743381        1.1334751392
 H         -2.2516264969        5.6211434918        6.1989259262
 H         -3.0646889071        4.5040189865        7.2997000629
 H         -4.0238195702        3.2734756829        5.3827572257
 H         -4.4572336658        4.9830824084        5.2825711806
 H         -4.0287281396        5.1159187020       -2.8944696953
 H         -5.6745254459        5.4241022354       -2.3319198495
 H         -5.6589827813        4.3952816897       -4.6075197546
 H         -6.4635142540        3.3537415580       -3.4293881023
 H          7.6826646694       -0.8348118180       -3.3245815608
 H          6.7984000965       -1.9532183787       -2.2824189863
 H          6.7390201721       -2.7518003403       -4.6234006412
 H          6.0550572086       -1.2100671784       -5.1485842284
 H          4.3571387745       -4.7905302939        3.9589074606
 H          4.2176872876       -4.8588993966        2.1997572758
 H          0.3626516951       -6.0561676956        1.3173951761
 H          0.5021953940       -5.9699402318        3.0753747296
 H         -1.7448745288        2.6112738718        6.3860866096
 H         -0.6743820081        3.8810254206        6.9875213469
 H         -2.6169636395        5.3721908960        3.6587560293
 H         -3.7038602864        4.1097928582        3.0732050261
 H         -5.6270355073        3.3367486544       -0.9878472495
 H         -4.2817660350        4.3909710929       -0.5417289992
 H         -3.5740819650        3.0672854146       -4.3886109684
 H         -4.9262654696        2.0287061851       -4.8503085512
 H          5.7108391952        0.6662522064       -3.4243159273
 H          6.1971267997        0.3928310860       -1.7496012178
 H          4.7409515828       -3.1834977748       -3.2180041922
 H          4.2667925433       -2.9084804921       -4.8964822726
 H          1.1265300199        0.3901915455        4.5617688218
 H         -0.5063139591       -0.6164102451       -0.2951389347
 H          1.1876378945        0.7140616637        1.1285699978
 H         -0.8676368022        0.1421973903       -3.5045986728
 H          4.4928227065       -0.8533174544        2.2286577695
 H         -1.7104033705       -2.6019518436        3.2875526260
 H          3.5591310041        3.3140780792        2.6215417948
 H         -3.9970032287        0.7114722213        1.7695066209
 H         -0.4320761242        4.5600173345        0.2372221607
 H         -3.2878608611       -2.8549282050       -1.6606480796
 H          2.5078163102        2.7918630053       -2.3601243327
 H          0.8623894916       -3.6178518901       -2.4233966327
 H          1.6584212321       -1.9601755162        4.4268248951
 H          0.7736150601       -2.4588902578        0.4606385271
 H          1.5297949786        4.0106979211        3.6801542727
 H         -1.5985157420        1.3485707911       -1.0445806718
 H         -0.5574565501        1.5523251637        2.4811614389
 H         -4.1972171963       -0.6578049629       -1.9896652801
 H          2.8367322181       -0.3032910632       -0.2472249424
 H          1.4519917744       -0.2793922221       -4.0286118986
 H          1.9410190262       -4.1809169592        4.1365320864
 H          2.0258188294       -4.2132768074        1.0795837194
 H         -0.3717302586        4.7425965506        4.6609591787
 H         -2.1290795803        2.3579501733        3.9160619917
 H         -2.7479203351        3.0680091852       -2.0018137729
 H         -5.2016265956        1.3115537901       -2.4727386775
 H          4.4114314685       -1.3264277251       -1.4924067882
 H          3.6806159736       -0.5424943722       -4.3557888804
 C         -1.6939094035       -2.1324286603       -6.2677998013
 C         -2.6796322791       -0.9682313555       -6.3794087886
 O         -2.0731476378       -3.0115071986       -5.2204963150
 C         -3.3903672788       -3.4933596221       -5.4317651085
 C         -4.3768267348       -2.3298850007       -5.5430164902
 O         -3.9967248444       -1.4534064173       -6.5877894137
 H         -0.6946877362       -1.7769459585       -6.0181687746
 H         -2.6515633321       -0.3677590266       -5.4598453851
 H         -3.4193673612       -4.0889892178       -6.3551606938
 H         -4.4012539991       -1.7765539958       -4.5929016142
 H         -2.4475890807       -0.3437356946       -7.2420808355
 H         -3.6270273922       -4.1268499222       -4.5770904249
 H         -5.3755377763       -2.6887168075       -5.7925110337
 H         -1.6684335589       -2.6864417417       -7.2170483033