142
-211.12687400
 C          3.1333324402       -6.4187860539        3.3112342651
 C          2.1741853352       -6.6821616616        2.1549461702
 C         -1.8813206474        5.0892422965        6.3914016584
 C         -2.9342223150        4.8639949117        5.3109838773
 C         -4.0881221928        5.3876903764       -2.3978216427
 C         -4.6730744754        4.6339209568       -3.5878888015
 C          6.9968468883       -1.3628645935       -2.9399155933
 C          6.3831757244       -2.0191106329       -4.1724339575
 C          3.6808622680       -4.9983472417        3.2328976499
 C          1.0354747818       -5.6696074527        2.1683520945
 C         -0.7820021996        4.0377530536        6.2916208156
 C         -2.2935160870        4.8927729769        3.9278572340
 C         -3.9384494339        4.4571684833       -1.1995040210
 C         -3.7946081473        3.4408840013       -3.9473112830
 C          6.1669367943       -0.1591416530       -2.5104813338
 C          4.9442855848       -2.4355952141       -3.8901635241
 C          2.3497453548        0.7499864240        3.9937073908
 C         -0.8551213598       -0.3794044610        0.5760284318
 C          1.6019379739        1.8227297419        0.5435110852
 C         -0.6020431886       -0.4313965767       -3.1052321030
 C          4.2101908380       -0.0736003274        2.7044920690
 C         -1.6845359591       -1.5171448462        2.5285032901
 C          3.8559045115        2.3048954701        2.9372942473
 C         -2.8178160440        0.4508422113        1.6978329833
 C          0.8507837979        4.0545126293        0.0389186983
 C         -2.1198610687       -1.9802297721       -2.0567635947
 C          2.4401153580        2.9504071044       -1.4110175648
 C          0.1867559394       -2.6013789270       -2.4193413646
 C          2.6192967384       -1.6842480082        3.7128060375
 C          0.3298603032       -2.3878274850        1.3753719693
 C          1.8709682917        3.1759821025        4.1076582931
 C         -1.9693943561        1.6204951802       -0.3184746227
 C         -0.0058127680        2.8981802858        2.0597126482
 C         -2.9123017604        0.2910649587       -2.5884385938
 C          3.2316000069        0.6586999833       -0.8937435202
 C          1.7786427599       -0.9868656108       -3.4204681115
 C          3.0759230687       -0.3196691849        3.4828434848
 C         -0.7516225343       -1.4196281369        1.4944997504
 C          2.7212300637        2.0636756671        3.7108564903
 C         -1.8807674766        0.5578498999        0.6708320751
 C          0.8172240217        2.9286075480        0.8607127360
 C         -1.8756600864       -0.7296629332       -2.6228791470
 C          2.4177854958        1.8260840199       -0.5837463554
 C          0.4340923756       -1.3513491440       -2.9930695319
 C          4.5842062986        1.2313366787        2.4562245151
 C         -2.6967397680       -0.5802571670        2.6111489815
 C          1.6554785704        4.0401424672       -1.0855060331
 C         -1.0856689022       -2.8955755728       -1.9735038083
 C          2.5494526347       -3.9712291944        3.2513352215
 C          1.5715803551       -4.2394598129        2.0783287691
 C         -0.1177728857        4.0686719960        4.9176205174
 C         -1.1991412214        3.8368275003        3.8109034011
 C         -3.0510701984        3.2649385013       -1.5421293815
 C         -3.6500997686        2.4898865230       -2.7620422912
 C          4.7223443299       -0.5662581827       -2.2132553538
 C          4.0986779624       -1.2358151990       -3.4649190544
 Br         6.1310096879        1.5704327522        1.3872852252
 Br        -3.9632547322       -0.7045667850        4.0365184628
 Br         1.6738238848        5.5721673596       -2.2274305059
 Br        -1.4248810137       -4.6015123448       -1.1837017741
 N          3.0927946887       -2.6599128853        3.0660516574
 N          0.4824760734       -3.3246610687        2.2057425865
 N          0.8139486094        3.0007549016        4.7816171034
 N         -2.9935193580        2.3519899763       -0.4456168416
 N         -0.5408695588        3.9353824304        2.5475934169
 N         -2.7210812538        1.4517459197       -3.0557591799
 N          3.9585906288        0.6048787233       -1.9228334631
 N          2.7860102106       -1.6804097585       -3.1063640344
 H          2.6070968608       -6.5539226602        4.2587875762
 H          3.9611320058       -7.1292630814        3.2810405858
 H          1.7619616008       -7.6894901078        2.2310931980
 H          2.7141220582       -6.6096925464        1.2083098070
 H         -1.4444667492        6.0835413926        6.2731757077
 H         -2.3425601105        5.0388567280        7.3789915463
 H         -3.4150076544        3.8957705406        5.4677684534
 H         -3.7029864162        5.6359360104        5.3716149385
 H         -3.1096925851        5.7912965847       -2.6679897579
 H         -4.7356788269        6.2241161095       -2.1301659418
 H         -4.7514868578        5.2988324200       -4.4494909805
 H         -5.6774882345        4.2833850045       -3.3394632689
 H          8.0165290032       -1.0396767591       -3.1549372754
 H          7.0379559594       -2.0863509562       -2.1227451403
 H          6.9656180790       -2.8961464972       -4.4596503735
 H          6.4006466285       -1.3144139033       -5.0067833657
 H          4.3467655957       -4.7987205928        4.0749667886
 H          4.2521765224       -4.8641737087        2.3127814800
 H          0.3596529911       -5.8417863177        1.3285239047
 H          0.4577113875       -5.7618208126        3.0892894583
 H         -1.1956496273        3.0409716067        6.4529749318
 H         -0.0170428715        4.2127510617        7.0509522738
 H         -1.8523676549        5.8716222250        3.7330474083
 H         -3.0427757606        4.7003743923        3.1578626389
 H         -4.9137906505        4.0834975164       -0.8836561266
 H         -3.4917645992        4.9896424568       -0.3579365137
 H         -2.7998282600        3.7784749744       -4.2425729555
 H         -4.2260432432        2.8884368145       -4.7845841740
 H          6.1553534611        0.5938134114       -3.3000198456
 H          6.5912578185        0.2989350982       -1.6150575586
 H          4.9159792320       -3.1772695229       -3.0900720818
 H          4.4942271323       -2.8819567883       -4.7792921437
 H          1.4673172985        0.5854201389        4.5924449033
 H         -0.1373754955       -0.3002623658       -0.2281579063
 H          1.5821264058        0.9560188592        1.1888987750
 H         -0.4341546170        0.5424625407       -3.5384442624
 H          4.7672701174       -0.9096473095        2.3130365439
 H         -1.5954346427       -2.3248040263        3.2370109910
 H          4.1552552427        3.3166803358        2.7086594455
 H         -3.6112306481        1.1781634857        1.7601371080
 H          0.2442332046        4.9081113872        0.2954406944
 H         -3.1009854809       -2.2256981825       -1.6789908454
 H          3.0732657183        2.9435196784       -2.2835435350
 H          0.9967303472       -3.3081991169       -2.3361062094
 H          1.8191497335       -1.8014801042        4.4566474636
 H          1.0004951396       -2.2458717884        0.5128732442
 H          2.1745379030        4.1673829063        3.7404583319
 H         -1.0831065975        1.7368653785       -0.9594596364
 H         -0.1207321492        1.9068015349        2.5222546890
 H         -3.8474407836        0.0093208489       -2.0825756324
 H          3.1695720497       -0.1685494069       -0.1686892332
 H          1.8595900278       -0.0580525353       -4.0018972290
 H          1.9695518622       -4.0445943072        4.1868901859
 H          2.1239644385       -4.0917230389        1.1334563311
 H          0.3446446062        5.0525645290        4.7257389818
 H         -1.6087158557        2.8269526485        3.9774467098
 H         -2.0449783651        3.5988687171       -1.8448339820
 H         -4.6331573949        2.0946911067       -2.4520353792
 H          4.6881315348       -1.2951041531       -1.3841806306
 H          4.0681228420       -0.4759209979       -4.2640236349
 C         -7.2428607882       -5.4809620572       -7.6273884918
 C         -8.6114084696       -6.0607279657       -7.9903464322
 O         -7.2726418205       -4.9055044155       -6.3315832003
 C         -7.6795632948       -5.8643497535       -5.3690714059
 C         -9.0480294693       -6.4440216215       -5.7322950267
 O         -9.0179133309       -7.0188801272       -7.0278263669
 H         -6.9654140600       -4.6784467947       -8.3110297156
 H         -9.3532145502       -5.2503453183       -8.0382697198
 H         -6.9375449626       -6.6743910453       -5.3211862989
 H         -9.8050958604       -5.6470112681       -5.7015431433
 H         -8.5716928140       -6.5853148979       -8.9450396360
 H         -7.7190721971       -5.3401746319       -4.4141010246
 H         -9.3250449391       -7.2466059534       -5.0486901565
 H         -6.4859144147       -6.2779793587       -7.6576745643