142
-211.12977309
 C          3.0156126375       -4.9614956515        7.0059746909
 C          4.1688219597       -5.5476298912        6.1966604285
 C         -5.5712455536        3.6080793814        4.5522071592
 C         -6.5955387851        2.6024230770        4.0396533683
 C          6.9519710540        4.2263725789       -1.8005557969
 C          5.8795733920        5.1773741118       -1.2773695607
 C         -2.8345174824        2.1594391727       -8.1981567331
 C         -1.3537682487        1.8210599955       -8.3410961810
 C          2.8176411411       -3.4869543042        6.6712232598
 C          3.9264827389       -5.3593106481        4.7027419020
 C         -4.1884956387        2.9708279794        4.6009055870
 C         -6.1880283596        2.0933334867        2.6629549777
 C          6.7526126547        2.8261893985       -1.2301359459
 C          4.4868725960        4.6523987920       -1.6099841663
 C         -3.5022422233        1.2273801669       -7.1930463826
 C         -0.6551410562        1.8964232987       -6.9878066606
 C         -0.0033370091        0.4730949653        3.6842610797
 C          4.2375892675       -1.3640500644        0.3373888124
 C         -4.0316240327        0.2434934054       -1.3562284065
 C          0.7896592803        1.0850929071       -2.2016601043
 C          2.3866403312        0.7324720830        3.8351660032
 C          2.7179302002       -3.2346032498        0.2740817636
 C          1.0141181422        2.5697564710        3.0723029778
 C          2.9479192244       -1.7919213376       -1.6498316022
 C         -4.3991873869       -2.0053949812       -0.5833642650
 C          0.8038224300        0.2258109872        0.0501772830
 C         -4.0534745815       -1.5759379609       -2.9362674981
 C         -0.6843965321       -0.7215805704       -1.5954167508
 C          1.3713458814       -1.4560398133        4.3841373621
 C          4.0027724481       -2.7741496274        2.3420601925
 C         -1.4391743293        2.3718147758        2.9815749031
 C          4.3773661669        0.2010376060       -1.5859581929
 C         -4.4556098849       -0.1726919075        1.0569791271
 C          2.4590410079        1.9229635373       -0.5629825497
 C         -3.5511157658        0.7286869956       -3.7134637612
 C         -0.7256047045        0.0968645413       -3.9089026965
 C          1.2467335441       -0.0634276120        3.9735268312
 C          3.6608897852       -2.4652286005        0.9611333676
 C         -0.1287044212        1.7883075094        3.2404091404
 C          3.8807731104       -1.0156425472       -0.9631331241
 C         -4.2787596011       -0.6421656784       -0.3101203505
 C          1.3119406819        1.1007434822       -0.9107753081
 C         -3.9094255074       -0.2129253696       -2.6643507233
 C         -0.1972742785        0.1706212728       -2.5518849883
 C          2.2492930879        2.0292419507        3.3838844153
 C          2.3834737323       -2.8851523939       -1.0178460663
 C         -4.2927913818       -2.4459998429       -1.8910018884
 C         -0.1948910469       -0.6583874758       -0.3060364853
 C          2.5524428844       -3.3081280951        5.1743439525
 C          3.7465018117       -3.8789018614        4.3724408695
 C         -3.7610138703        2.4580657735        3.2172711494
 C         -4.7956668394        1.4468982664        2.6972701256
 C          5.3688730978        2.2915846463       -1.5850376447
 C          4.2833424714        3.2643380355       -1.0127814881
 C         -2.8192024488        1.3196289718       -5.8303128397
 C         -1.3117906017        0.9523958011       -5.9845180636
 Br         3.8144117618        3.1103370598        3.1732900824
 Br         1.0733103697       -3.9104187049       -1.9618478986
 Br        -4.4764613642       -4.3183942025       -2.2569695340
 Br        -0.8818884706       -1.8529379970        1.0044242075
 N          2.4476521353       -1.9175599586        4.8547513990
 N          3.4468437778       -3.7082553287        2.9835993555
 N         -2.4962665230        1.8058157361        3.3758125778
 N          5.1383337131        1.0172682692       -0.9873322693
 N         -4.4758758943        1.0550785082        1.3550015748
 N          3.0156037407        2.7192341850       -1.3745040278
 N         -3.3771174348        0.3752468822       -4.9173107429
 N         -0.6848083876        1.0797726521       -4.7033247327
 H          2.0980798436       -5.5094725583        6.7802865587
 H          3.2176045181       -5.0670376938        8.0734284198
 H          4.2758183514       -6.6110292393        6.4174758749
 H          5.0998160382       -5.0499137420        6.4778336918
 H         -5.5496363156        4.4771039856        3.8908551857
 H         -5.8471901258        3.9499461559        5.5513107290
 H         -6.6614412667        1.7625433460        4.7346324087
 H         -7.5809086874        3.0674454728        3.9768081332
 H          6.8999568509        4.1835999034       -2.8910500005
 H          7.9418316201        4.5936484297       -1.5248942724
 H          6.0116810912        6.1667973926       -1.7184323164
 H          5.9774797516        5.2739587159       -0.1937440169
 H         -3.3331886201        2.0696490492       -9.1648320225
 H         -2.9404503018        3.1922726139       -7.8583849168
 H         -0.8779337504        2.5146185036       -9.0366168443
 H         -1.2492872708        0.8122538700       -8.7470829860
 H          1.9715826783       -3.0794729675        7.2289834318
 H          3.7066178204       -2.9133249983        6.9392709169
 H          4.7688150333       -5.7494161486        4.1278642152
 H          3.0288814611       -5.8961276526        4.3917653035
 H         -4.1859116312        2.1278755929        5.2945398486
 H         -3.4459584188        3.6932446427        4.9473432000
 H         -6.1660155459        2.9177176852        1.9476605505
 H         -6.9057357553        1.3536556017        2.3012175877
 H          6.8507975951        2.8406891287       -0.1436498336
 H          7.5043118544        2.1421880207       -1.6292108012
 H          4.3472871008        4.5938755151       -2.6905585718
 H          3.7239694904        5.3206081548       -1.2060088361
 H         -3.4494668986        0.1939256633       -7.5395774851
 H         -4.5555018775        1.4892509288       -7.0729557330
 H         -0.7043786888        2.9116642152       -6.5909071712
 H          0.3973942688        1.6242626650       -7.0875166733
 H         -0.8980934094       -0.1179246155        3.7979351512
 H          4.9585933431       -0.7474825638        0.8512265250
 H         -3.9328816114        1.2946022993       -1.1368361054
 H          1.1813621153        1.7644856613       -2.9403073682
 H          3.3491819537        0.3119857899        4.0771096631
 H          2.2655456038       -4.0760916575        0.7736323585
 H          0.9312443678        3.5858030745        2.7164326381
 H          2.6562907326       -1.5295229857       -2.6556640928
 H         -4.5747300514       -2.7081532943        0.2166112302
 H          1.1987472858        0.2276643512        1.0548332545
 H         -3.9658761590       -1.9204509206       -3.9541555993
 H         -1.4342697263       -1.4496818926       -1.8620928603
 H          0.4756720207       -2.0749012214        4.2369489121
 H          4.7593585531       -2.1200046013        2.7982702753
 H         -1.4437557184        3.3392768657        2.4594418113
 H          4.0061537867        0.3927448745       -2.6037761947
 H         -4.6090024002       -0.9574719978        1.8110269926
 H          2.8521868573        1.7636358088        0.4515998101
 H         -3.4016595728        1.7635982864       -3.3851219727
 H         -1.1645207208       -0.8699105691       -4.1903669234
 H          1.6410782986       -3.8601616040        4.8854899927
 H          4.6449058723       -3.3072649595        4.6648673798
 H         -3.6978247096        3.3052237737        2.5145604276
 H         -4.8038552920        0.5795415321        3.3801306807
 H          5.2291877705        2.2609033463       -2.6793944044
 H          4.4219165520        3.2889796064        0.0803273175
 H         -2.8744899937        2.3497132156       -5.4360474266
 H         -1.2751339148       -0.0880750957       -6.3464613603
 C         -1.6028951678        3.8444185917       -2.3192166081
 C         -1.2473406348        3.5022844595       -0.8730975771
 O         -3.0085352380        3.8001528130       -2.5057084880
 C         -3.6619617257        4.6823730240       -1.6084848488
 C         -3.3072945628        4.3382786817       -0.1621289622
 O         -1.9002160130        4.3753152914        0.0314622760
 H         -1.1736233622        3.1124047671       -3.0050763471
 H         -1.5407071949        2.4640553689       -0.6565958125
 H         -3.3591327158        5.7162578981       -1.8275097947
 H         -3.6850157623        3.3363184345        0.0905192400
 H         -0.1774642683        3.6234296216       -0.7050906868
 H         -4.7312301805        4.5624061752       -1.7849980188
 H         -3.7254028260        5.0792046746        0.5203933648
 H         -1.2337259622        4.8507487597       -2.5610631989