142
-211.12795074
 C          2.9639620730       -6.4793035222        3.4694278437
 C          1.8463933190       -6.9197582002        2.5294702441
 C         -2.5194603826        4.7847005082        6.4639205410
 C         -3.7002820038        4.3699653381        5.5918951030
 C         -6.1086209287        4.1623937095       -1.8747098563
 C         -6.8146592578        3.2589072456       -2.8806981856
 C          5.2577254155       -1.8398874084       -3.7151950605
 C          4.5071834111       -2.6460393876       -4.7702214824
 C          3.3659890092       -5.0383094093        3.1769494346
 C          0.6445309242       -5.9920324065        2.6606573086
 C         -1.3456218965        3.8334536296        6.2602165837
 C         -3.2915851329        4.3338736703        4.1235187023
 C         -5.6889598438        3.3650189667       -0.6448566000
 C         -5.9118867780        2.0971540165       -3.2802042329
 C          4.4153194622       -0.6573700655       -3.2525204749
 C          3.1717063097       -3.1285708879       -4.2159601105
 C          1.6869490895        0.6393770195        3.7231999596
 C         -1.9440557477       -1.0406683205        0.9749264531
 C          0.2782110230        1.2868700273        0.3783793016
 C         -2.3170620154       -1.4476008027       -2.6652724646
 C          3.3579210886       -0.1496732251        2.1783687607
 C         -2.3247520412       -2.0274580097        3.1372022405
 C          2.8261804414        2.2046520349        2.2902215514
 C         -3.7528308197       -0.2419549243        2.3497094083
 C         -0.7319342258        3.4053635026       -0.1608752124
 C         -3.5000770588       -2.9807921632       -1.2328328835
 C          0.6811766249        2.2870410374       -1.7736388907
 C         -1.2422330532       -3.4759082257       -1.9358887703
 C          2.1264689968       -1.7803402330        3.5824801796
 C         -0.4677977898       -2.8670375795        1.7255006858
 C          0.9986966342        3.0157540093        3.7306813192
 C         -3.3636565444        0.7749783233        0.1207299973
 C         -1.1435212940        2.3778642271        2.0597574151
 C         -4.5608067705       -0.8357425631       -1.8201363682
 C          1.7340113258        0.1101137597       -1.2250794974
 C          0.0178505893       -1.8641804334       -3.3349593141
 C          2.4089025408       -0.4117703336        3.1700863800
 C         -1.5940646465       -1.9708360446        1.9489852594
 C          1.8745593652        1.9463695344        3.2759176863
 C         -3.0169222137       -0.1738050523        1.1673761075
 C         -0.5339199951        2.3590987871        0.7393261846
 C         -3.4619702521       -1.7817466849       -1.9433028349
 C          0.8906140147        1.2433669775       -0.8704309159
 C         -1.2017393238       -2.2770803941       -2.6529081029
 C          3.5560452323        1.1523788937        1.7661786315
 C         -3.3873706464       -1.1623233402        3.3148067085
 C         -0.1259059310        3.3453800598       -1.4023287629
 C         -2.3922664856       -3.8096375579       -1.2500383077
 C          2.1697934205       -4.0971119616        3.3131515757
 C          1.0339778947       -4.5437516761        2.3572978571
 C         -0.9140904284        3.8003412924        4.7963791354
 C         -2.1277486921        3.3724235082        3.9062749390
 C         -4.7722658816        2.2091900632       -1.0321168421
 C         -5.4984010045        1.2790550140       -2.0596003953
 C          3.0768709428       -1.1301847122       -2.6812654538
 C          2.3129710971       -1.9532103352       -3.7502928792
 Br         4.8471874159        1.5127385305        0.4046872266
 Br        -4.3769145759       -1.2297018896        4.9480362401
 Br        -0.4240790257        4.7661869091       -2.6449616878
 Br        -2.4471353856       -5.4442611564       -0.2621451015
 N          2.5567801116       -2.7728766724        2.9313577596
 N         -0.0920262991       -3.6983183801        2.5962716721
 N          0.0881535465        2.8115380077        4.5859723176
 N         -4.4545110360        1.4153954142        0.1115947683
 N         -1.6930000234        3.4081400356        2.5465268487
 N         -4.5491792527        0.2802401357       -2.4173968960
 N          2.2786403508        0.0093407819       -2.3581328128
 N          1.1186720322       -2.4501826157       -3.1374708376
 H          2.6220751586       -6.5584617067        4.5037886913
 H          3.8319806666       -7.1299786729        3.3506312927
 H          1.5407602099       -7.9409266328        2.7623837487
 H          2.2078103001       -6.9029666657        1.4989429300
 H         -2.2130424976        5.8004794403        6.2036405636
 H         -2.8115692980        4.7796002802        7.5152425792
 H         -4.0473582207        3.3798858588        5.8960933895
 H         -4.5257559331        5.0714314962        5.7226060231
 H         -5.2241628480        4.6035569928       -2.3398379416
 H         -6.7714384984        4.9748468077       -1.5727817523
 H         -7.0849556522        3.8301019891       -3.7702624512
 H         -7.7339680967        2.8687162992       -2.4379208790
 H          6.2020792218       -1.4747754171       -4.1211292242
 H          5.4848085904       -2.4803971917       -2.8601501574
 H          5.1034755526       -3.5059015952       -5.0799367896
 H          4.3312201670       -2.0225227996       -5.6494199145
 H          4.1469764650       -4.7120316829        3.8668657698
 H          3.7569327503       -4.9538198430        2.1615593519
 H         -0.1477658084       -6.2918516170        1.9721332617
 H          0.2427221317       -6.0339495760        3.6741926000
 H         -1.6216195139        2.8216567474        6.5616378222
 H         -0.4927914960        4.1454696652        6.8666037940
 H         -2.9883977163        5.3269722700        3.7880937886
 H         -4.1289551693        4.0088716298        3.5034792003
 H         -6.5652263302        2.9577775540       -0.1379061942
 H         -5.1576828218        4.0060214352        0.0609510824
 H         -5.0095327032        2.4692253932       -3.7681201855
 H         -6.4274038658        1.4379044191       -3.9816365072
 H          4.2133944048        0.0145760594       -4.0879383581
 H          4.9414427793       -0.0892997508       -2.4831073942
 H          3.3336266898       -3.7939069681       -3.3661954664
 H          2.6198640378       -3.6833394555       -4.9775330718
 H          0.9439004700        0.4613020046        4.4850178311
 H         -1.3835269588       -0.9936195197        0.0520643313
 H          0.4396820569        0.4836350364        1.0832623239
 H         -2.3077924512       -0.5141468446       -3.2063826575
 H          3.9128107044       -0.9713614632        1.7547686766
 H         -2.0449118989       -2.7490451968        3.8876974993
 H          2.9818256050        3.2113637378        1.9325957431
 H         -4.5857627122        0.4285763109        2.4872299159
 H         -1.3575347249        4.2341239896        0.1292241334
 H         -4.3790016519       -3.2523862116       -0.6677574649
 H          1.1581581775        2.2448554238       -2.7395185654
 H         -0.3723018194       -4.1128713939       -1.9323103940
 H          1.4879094449       -1.8891659162        4.4700295400
 H          0.0291434771       -2.7687356634        0.7471526657
 H          1.1383683440        3.9921698327        3.2440295418
 H         -2.6101706851        0.8904387578       -0.6723888031
 H         -1.0841985113        1.4293600346        2.6138049346
 H         -5.3703321617       -1.1255595653       -1.1342408921
 H          1.8633557217       -0.6484706225       -0.4366837941
 H         -0.0772939380       -0.9946646235       -3.9999013562
 H          1.7665120498       -4.1241974235        4.3396820099
 H          1.4040543875       -4.4515443240        1.3208252378
 H         -0.5920786395        4.8002691963        4.4572146926
 H         -2.4004666276        2.3504700344        4.2171107676
 H         -3.8629973411        2.5808693795       -1.5325735113
 H         -6.3816803574        0.8531109871       -1.5526627692
 H          3.2388649411       -1.7799034255       -1.8030107147
 H          2.0890693953       -1.2749432684       -4.5909996835
 C          7.3569394256        2.0111502070       -6.7322118970
 C          6.5974057012        1.0233302200       -7.6200041717
 O          8.7385986705        2.0044752145       -7.0507959709
 C          8.9368541143        2.3126755564       -8.4201886082
 C          8.1767172519        1.3258511947       -9.3087614916
 O          6.7952665005        1.3299272179       -8.9902998125
 H          7.2846189760        1.7300268725       -5.6815618885
 H          6.9501502556        0.0015024932       -7.4192415511
 H          8.5854339745        3.3349828929       -8.6216909363
 H          8.5834972796        0.3141776433       -9.1660007438
 H          5.5234846514        1.0897730807       -7.4465121287
 H         10.0107849542        2.2476694305       -8.5954785956
 H          8.2487103428        1.6107406411      -10.3584796429
 H          6.9511817966        3.0227839797       -6.8773552146