142
-211.12680477
 C          5.9503620232       -5.5383324012        3.6152936271
 C          5.1764662671       -6.2180644319        2.4904074114
 C         -3.2046363172        3.1724604084        6.2494092160
 C         -4.0766738494        2.4886286114        5.2012623629
 C         -5.3476481682        2.1477438483       -2.5051056556
 C         -5.5875117456        1.1686753589       -3.6499596542
 C          7.4931748929        0.2476024573       -2.9586986200
 C          7.1846564044       -0.6614625959       -4.1439566999
 C          5.8946067844       -4.0233365234        3.4565757862
 C          3.7308051329       -5.7364722402        2.4738815005
 C         -1.7750986610        2.6473765054        6.1788296340
 C         -3.4990169935        2.7013603739        3.8065017637
 C         -4.8456532603        1.4098622100       -1.2690317309
 C         -4.3114125928        0.3980217295       -3.9693924311
 C          6.2582772816        1.0514311977       -2.5699571563
 C          6.0244600356       -1.5921947634       -3.8104164080
 C          2.4068541516        0.7654557153        3.9762864346
 C         -0.0985529250       -1.7180789839        0.6648441815
 C          1.2947817783        1.2521526469        0.4943946795
 C          0.1377151563       -1.8782500376       -3.0090372204
 C          4.4340155094        0.6777729265        2.6784064632
 C         -0.4077200313       -2.9883256291        2.6860739391
 C          3.1671963422        2.7308852690        2.8096961475
 C         -2.2291437748       -1.6765448266        1.7869683068
 C         -0.2791843825        2.9743090886       -0.1025936256
 C         -0.6522074487       -3.8291540282       -1.8377157423
 C          1.6112153589        2.5058039744       -1.5359991958
 C          1.7128835257       -3.5229901680       -2.2245243030
 C          3.6159503809       -1.3750371532        3.8008089808
 C          1.7865411882       -3.0483046651        1.5349962953
 C          1.0034587591        2.8040309790        3.9856103405
 C         -1.9154208160       -0.3720814010       -0.2992495591
 C         -0.6036897951        1.6871566305        1.9932832209
 C         -2.2699948879       -2.0835182377       -2.4734777915
 C          3.2445054284        0.7433393927       -0.9253575847
 C          2.5456244292       -1.4772809181       -3.3489729639
 C          3.4946904335        0.0448887200        3.4969677587
 C          0.4096672067       -2.5826560863        1.6295133300
 C          2.2251963360        2.1017351392        3.6226158557
 C         -1.4118258576       -1.2601636531        0.7368130369
 C          0.1377910558        1.9745249320        0.7753267369
 C         -0.9171749883       -2.6195867331       -2.4786417996
 C          2.0381725100        1.5125539426       -0.6527663454
 C          1.4510700088       -2.3125857525       -2.8720257107
 C          4.2586747762        2.0090678420        2.3601200358
 C         -1.7087291520       -2.5268617887        2.7451472611
 C          0.4616314919        3.2150446424       -1.2450865205
 C          0.6575070900       -4.2622525801       -1.7305066681
 C          4.4498207127       -3.5255040059        3.4451963551
 C          3.6597225135       -4.2174434162        2.3046779137
 C         -1.1769797739        2.8698394909        4.7921384328
 C         -2.0733150112        2.1664842083        3.7198389113
 C         -3.5604085883        0.6473646282       -1.5740304127
 C         -3.8084919665       -0.3611761535       -2.7443509935
 C          5.0895347596        0.1274089032       -2.2216796204
 C          4.7769103101       -0.7978513534       -3.4257077811
 Br         5.5375530258        2.8747514322        1.2350856013
 Br        -2.8217405375       -3.0701558447        4.2002785026
 Br        -0.1310548231        4.5631382620       -2.4626324675
 Br         1.0131759155       -5.9141629545       -0.8387180650
 N          4.4318890237       -2.1177034963        3.1867938197
 N          2.2977140457       -3.8009793711        2.4082570407
 N          0.1041905385        2.2575371045        4.6890824872
 N         -3.1455041479       -0.1114063565       -0.4378803584
 N         -1.5078619658        2.4508349478        2.4398056571
 N         -2.5484458087       -0.9697648381       -3.0067832621
 N          3.9277921368        0.9191542767       -1.9706597199
 N          3.7433772948       -1.7001085038       -3.0172323827
 H          5.5162501416       -5.8193407204        4.5773962800
 H          6.9910913398       -5.8665560780        3.6062957593
 H          5.1942738993       -7.3008725241        2.6232787373
 H          5.6473779594       -5.9883469124        1.5320894453
 H         -3.2042442179        4.2510550209        6.0759889355
 H         -3.6082017259        2.9914943640        7.2469104543
 H         -4.1282628318        1.4182191281        5.4128847894
 H         -5.0908769912        2.8891824311        5.2399231132
 H         -4.6064487964        2.8899576576       -2.8100675783
 H         -6.2725865815        2.6739299058       -2.2639261895
 H         -5.9176467044        1.7077129079       -4.5393718565
 H         -6.3755863392        0.4660037633       -3.3696011066
 H          8.3041436288        0.9322441118       -3.2117525998
 H          7.8158209452       -0.3572285034       -2.1084091586
 H          8.0640444704       -1.2545742954       -4.4005226798
 H          6.9237769996       -0.0519560685       -5.0119934250
 H          6.4257854898       -3.5335533099        4.2753201826
 H          6.3692500189       -3.7240303152        2.5205533863
 H          3.1802518696       -6.2045033569        1.6556322272
 H          3.2331177932       -6.0007528278        3.4081787932
 H         -1.7532027889        1.5783762993        6.3967560919
 H         -1.1463057528        3.1545335928        6.9135326222
 H         -3.4864120983        3.7637108044        3.5575924697
 H         -4.1070509699        2.1865647589        3.0604720872
 H         -5.5958643129        0.6988034919       -0.9193686784
 H         -4.6454836439        2.1149470501       -0.4602887577
 H         -3.5274719813        1.0827042242       -4.2971484685
 H         -4.4907161570       -0.3192931086       -4.7729284227
 H          5.9514003327        1.6966147296       -3.3945813860
 H          6.4701356437        1.6860039452       -1.7073252736
 H          6.2899028957       -2.2420698802       -2.9748165111
 H          5.7844132465       -2.2257077699       -4.6668014641
 H          1.6650768487        0.2971206667        4.6045179516
 H          0.5285172233       -1.4030233282       -0.1571415780
 H          1.6217030893        0.4860322739        1.1830794825
 H         -0.0890882537       -0.9441443579       -3.4991922371
 H          5.2743985044        0.1106995456        2.3113527309
 H         -0.0050598293       -3.6568140225        3.4298563612
 H          3.0394441088        3.7647440229        2.5261144923
 H         -3.2460764314       -1.3212074702        1.8311640443
 H         -1.1728761047        3.5323321658        0.1260267873
 H         -1.4585217608       -4.4136675059       -1.4208297286
 H          2.1917503348        2.6992763924       -2.4235709894
 H          2.7347660858       -3.8515767008       -2.1229550958
 H          2.9308657421       -1.7594089541        4.5690822965
 H          2.3457761210       -2.7000024598        0.6520003783
 H          0.8864544862        3.8136781122        3.5651746818
 H         -1.1484371773        0.0514019613       -0.9644076309
 H         -0.3140220144        0.7590847588        2.5078996318
 H         -3.0199155164       -2.6772788026       -1.9304342442
 H          3.5174462292        0.0020704328       -0.1573212991
 H          2.2569611820       -0.6272537528       -3.9825456352
 H          3.9436895157       -3.7729877652        4.3936892107
 H          4.1108275841       -3.9131562126        1.3436036306
 H         -1.1469311675        3.9450026097        4.5435943489
 H         -2.0449245893        1.0876397196        3.9449294181
 H         -2.7679554909        1.3343951649       -1.9137146028
 H         -4.5601921061       -1.0911867895       -2.3970487304
 H          5.3454734304       -0.5115372904       -1.3579412425
 H          4.4505488579       -0.1541260151       -4.2600470740
 C        -12.7361205510        4.8145778814       -8.2880395250
 C        -13.2680302103        4.3210880064       -6.9409935525
 O        -12.0965962355        6.0713421534       -8.1408993819
 C        -11.0473047935        5.9897570119       -7.1907412477
 C        -11.5785293496        5.4953795532       -5.8437295645
 O        -12.2187460360        4.2387502550       -5.9910986333
 H        -13.5502351964        4.9676230304       -8.9965630487
 H        -14.0412730196        5.0122696149       -6.5755646826
 H        -10.2732626659        5.2997261738       -7.5566149279
 H        -12.2933995756        6.2266473201       -5.4395970852
 H        -13.6797344819        3.3155541075       -7.0288465925
 H        -10.6369562924        6.9957909894       -7.1026378783
 H        -10.7638311010        5.3413252985       -5.1361226715
 H        -12.0206622733        4.0832203947       -8.6911224003