142
-211.13092806
 C          0.8439431175       -6.9502922461        2.4141502589
 C          0.0828371123       -7.0050631620        1.0934808464
 C         -3.6601334950        4.7003441027        5.6838089139
 C         -4.4924872117        4.6572155392        4.4062329874
 C         -3.9486137472        5.9992425440       -3.3412473314
 C         -4.3665816228        5.4168032701       -4.6876832702
 C          6.1934099596       -2.0088855011       -2.4318498828
 C          5.7623813449       -2.5136989004       -3.8049944135
 C          1.5254937653       -5.5964710532        2.5759287895
 C         -0.9387603325       -5.8765648618        1.0212855197
 C         -2.6486868796        3.5597112504        5.7006675097
 C         -3.5899036413        4.7259992373        3.1793996898
 C         -4.1460366251        4.9720023339       -2.2320888685
 C         -3.5766846256        4.1480405477       -4.9888120591
 C          5.4275989447       -0.7424331713       -2.0689742267
 C          4.2614212727       -2.7777010865       -3.8197925334
 C          0.5919226672        0.1691294091        3.7201041271
 C         -1.9859076289       -0.3160505761       -0.3828843228
 C          0.5942490144        1.5125057114        0.3118137015
 C         -1.0771645837       -0.1572195972       -3.9348665676
 C          2.5698139423       -0.7249605111        2.6750293356
 C         -3.2739180869       -1.4841530298        1.2814398785
 C          2.3880428422        1.6474066434        3.0949170757
 C         -4.0330190330        0.6512627678        0.4366751220
 C          0.1589212907        3.8409378657       -0.1221731410
 C         -2.9334986163       -1.5608992870       -3.3142847490
 C          1.8733125180        2.6726770511       -1.3648133737
 C         -0.6855566224       -2.4464816536       -3.2962635269
 C          0.6926180699       -2.2442925095        3.2295391446
 C         -1.1718777627       -2.4928698470        0.4343805451
 C          0.3041064930        2.6128965362        3.9841508870
 C         -2.7034501675        1.8560647541       -1.2780614815
 C         -1.1602775222        2.6469701556        1.6064746697
 C         -3.3456224284        0.8212116156       -3.7882599946
 C          2.3390148804        0.2786310237       -0.9188395893
 C          1.2414629156       -0.9869353944       -3.8436686411
 C          1.3009476135       -0.9202482932        3.2274699336
 C         -2.1583131044       -1.4214753659        0.4446042831
 C          1.1181627035        1.4575916070        3.6383134944
 C         -2.9130813391        0.7229079267       -0.3907783926
 C         -0.1286807519        2.6719668844        0.5813180746
 C         -2.4451519433       -0.3198202121       -3.7207842905
 C          1.5968529610        1.5037790937       -0.6532564325
 C         -0.1928144404       -1.2056290003       -3.7090237023
 C          3.0930995285        0.5509501813        2.6315792951
 C         -4.1876341068       -0.4477067391        1.2616366107
 C          1.1489770807        3.8160804735       -1.0871605319
 C         -2.0449958198       -2.6032884098       -3.1183892087
 C          0.5066535904       -4.4590979055        2.5177586097
 C         -0.2602005066       -4.5132318272        1.1717234558
 C         -1.7263296698        3.6276031135        4.4863621080
 C         -2.5844903370        3.5790888060        3.1788632720
 C         -3.3461195652        3.7049394655       -2.5162365351
 C         -3.7790026920        3.1034324576       -3.8942895090
 C          3.9207019893       -1.0066950337       -2.0644000103
 C          3.4815683738       -1.5132870148       -3.4622457773
 Br         4.8246053582        0.8244200282        1.8703485868
 Br        -5.7067847371       -0.5271695805        2.4176216185
 Br         1.5159719075        5.4103225494       -2.0740838757
 Br        -2.7211638240       -4.2960824320       -2.5466149056
 N          1.1898207006       -3.2027860400        2.5750389890
 N         -1.2610087160       -3.4943630252        1.1958345859
 N         -0.8734295796        2.4891251755        4.4317555090
 N         -3.6002920942        2.7151686914       -1.5185934844
 N         -1.6880600123        3.6974779778        2.0734452752
 N         -2.9365560822        1.9757851099       -4.1077195351
 N          3.2311210616        0.2177753386       -1.8083319380
 N          2.0840061798       -1.8142108369       -3.3966384276
 H          0.1493327018       -7.1088774185        3.2421002965
 H          1.5942937005       -7.7420954141        2.4472945903
 H         -0.4302318575       -7.9629522450        0.9951801994
 H          0.7859704493       -6.9119153808        0.2629092862
 H         -3.1319041211        5.6547897884        5.7426325903
 H         -4.3106147258        4.6207142886        6.5562493642
 H         -5.0704598419        3.7306848632        4.3794990826
 H         -5.1940073686        5.4927538090        4.3891115501
 H         -2.8967955028        6.2912781877       -3.3817561513
 H         -4.5378245985        6.8907378086       -3.1207451405
 H         -4.1948200972        6.1470614442       -5.4800439875
 H         -5.4337954149        5.1840712096       -4.6686561815
 H          7.2642350752       -1.7975721301       -2.4290420694
 H          5.9881070035       -2.7763512358       -1.6833093912
 H          6.2951450054       -3.4339415021       -4.0508622839
 H          6.0091816577       -1.7677321919       -4.5643376039
 H          2.0529455814       -5.5452884890        3.5308815886
 H          2.2524749854       -5.4430106374        1.7766940232
 H         -1.4679911554       -5.8996554993        0.0668228545
 H         -1.6773476597       -5.9822798906        1.8174286242
 H         -3.1630353046        2.5973986437        5.6903834415
 H         -2.0372939974        3.6060692762        6.6042369994
 H         -3.0406295453        5.6687185276        3.1630743449
 H         -4.1841080262        4.6655199823        2.2658559318
 H         -5.2002318261        4.7044253499       -2.1439965008
 H         -3.8198061986        5.3794542489       -1.2735293754
 H         -2.5111957588        4.3730264707       -5.0585035850
 H         -3.8940142511        3.7188307958       -5.9414212201
 H          5.6370808061        0.0505549029       -2.7890238630
 H          5.7225494687       -0.3846720750       -1.0805099462
 H          4.0101276969       -3.5523768402       -3.0935415472
 H          3.9415094616       -3.1190611617       -4.8065892351
 H         -0.3929524914        0.0446052412        4.1428452046
 H         -1.1255609182       -0.2638189264       -1.0349003211
 H          0.3766246964        0.6109081340        0.8666110215
 H         -0.7198844769        0.8117021462       -4.2475644461
 H          3.1078266764       -1.5752700459        2.2884137642
 H         -3.3993099237       -2.3429707188        1.9209631652
 H          2.8083506017        2.6393021678        3.0242321043
 H         -4.7493915176        1.4567322394        0.4192951055
 H         -0.4016405830        4.7353337564        0.0971395384
 H         -3.9901231541       -1.7019549197       -3.1432852331
 H          2.6494619199        2.6564293086       -2.1128657054
 H          0.0084878255       -3.2531986757       -3.1228855229
 H         -0.2388066664       -2.3417602283        3.8042087656
 H         -0.3460109734       -2.3682476141       -0.2840232851
 H          0.7510311247        3.5957106058        3.7740605075
 H         -1.7045377531        1.9095411283       -1.7357381559
 H         -1.4454998633        1.6435276003        1.9557517562
 H         -4.3865207970        0.6303105063       -3.4883051497
 H          2.0691428263       -0.5857230092       -0.2913515469
 H          1.5376234839       -0.0440927156       -4.3243168949
 H         -0.2373536814       -4.5563469867        3.3265150135
 H          0.4693310423       -4.3522737945        0.3582414352
 H         -1.1594016334        4.5747506944        4.4743581306
 H         -3.1010621566        2.6052063791        3.1782088275
 H         -2.2701135330        3.9308809994       -2.5964948654
 H         -4.8426852558        2.8199668512       -3.8113359255
 H          3.6700632211       -1.7867152308       -1.3244656915
 H          3.6896851490       -0.7067932091       -4.1862503551
 C          7.1770016209       -3.1882137253        1.5160045830
 C          5.6604481068       -3.1428769147        1.3268663711
 O          7.6096962199       -4.5146740041        1.7679264688
 C          7.2128965340       -5.3756476798        0.7139647331
 C          5.6947025613       -5.3355032571        0.5323040560
 O          5.2577449606       -4.0103312710        0.2799275710
 H          7.4763776465       -2.5966440293        2.3809854360
 H          5.1641296359       -3.4417663224        2.2614620198
 H          7.7052947886       -5.0657972357       -0.2191655686
 H          5.2070915211       -5.7153990379        1.4414220350
 H          5.3439636516       -2.1422063562        1.0337053135
 H          7.5443473822       -6.3753982344        0.9946888208
 H          5.3889668721       -5.9280024026       -0.3303127463
 H          7.6722180195       -2.8042147648        0.6130592239