142
-211.12950139
 C          4.6494997475       -6.2639569363        2.9787681806
 C          4.1469165599       -6.6865206338        1.6020475842
 C         -4.9349612110        2.0570931098        5.0984376513
 C         -5.5306717040        1.5862361631        3.7756995085
 C         -4.8890009825        2.7949308294       -4.1674749151
 C         -4.8365086878        2.0380935694       -5.4910599286
 C          7.6246143034        0.4570671464       -1.7479642606
 C          7.6357994684       -0.2128059675       -3.1183222979
 C          4.6304602586       -4.7451196416        3.1068155595
 C          2.7419335296       -6.1478477236        1.3606126947
 C         -3.5147272983        1.5283777940        5.2638397150
 C         -4.6533894357        2.0334660927        2.6118067648
 C         -4.7056143125        1.8344795639       -2.9976703718
 C         -3.5206821932        1.2788845910       -5.6214808485
 C          6.3181918084        1.2122909229       -1.5350408173
 C          6.4436810871       -1.1524224829       -3.2600109555
 C          1.0866729446       -0.0156283505        3.7590864126
 C         -0.5555361764       -1.7519889931       -0.5521066797
 C          0.7863785462        1.0181468133        0.2707624973
 C          0.5474212360       -1.3381655426       -4.0290317660
 C          3.3561994107        0.0785482942        2.9583384592
 C         -1.3282949731       -3.2797327042        1.1398746917
 C          2.0619472147        2.1075688772        3.1749618428
 C         -2.8845715899       -1.7769853154        0.0588987627
 C         -0.6406561256        2.8457488027       -0.3766505992
 C         -0.5192331377       -3.4178619203       -3.4473686222
 C          1.5270533023        2.5724874112       -1.4121958794
 C          1.8686912832       -3.1649200817       -3.1806526822
 C          2.3283837940       -2.1214112120        3.4585949406
 C          1.0697709540       -3.2718327518        0.5067437718
 C         -0.3169318492        2.0195351739        3.8172439276
 C         -2.0881287208       -0.1959954327       -1.6788353331
 C         -1.4067910260        1.2501408319        1.3594904513
 C         -1.9189368520       -1.5137663719       -4.1416604244
 C          3.0105869130        0.7021424230       -0.7434047843
 C          2.9617245478       -0.9964478583       -3.6796548379
 C          2.2645367701       -0.6666809905        3.4119243146
 C         -0.2885476939       -2.7662860154        0.3625479632
 C          0.9693533240        1.3669779752        3.6236046146
 C         -1.8455550178       -1.2514756331       -0.7080121904
 C         -0.4147602257        1.7105029250        0.4003307791
 C         -0.6100145807       -2.1063687672       -3.9120173706
 C          1.7619821902        1.4427257503       -0.6263747557
 C          1.7824347692       -1.8514279810       -3.6496507244
 C          3.2380546221        1.4499030072        2.8605659905
 C         -2.6037040255       -2.7745175324        0.9743684215
 C          0.3309219973        3.2498006668       -1.2733746158
 C          0.7200060653       -3.9254854425       -3.0996850193
 C          3.2243804844       -4.1940349302        2.8734885115
 C          2.7145860868       -4.6219244334        1.4738614499
 C         -2.6244335451        1.9788495512        4.1085011764
 C         -3.2395420206        1.4815109577        2.7589884797
 C         -3.3809768473        1.0869619530       -3.1117728000
 C         -3.3353704252        0.3013024388       -4.4636197500
 C          5.1165048218        0.2735005276       -1.6625393263
 C          5.1287807345       -0.4005555106       -3.0582174980
 Br         4.7269998932        2.4703599245        2.2347380882
 Br        -4.0226871214       -3.4661932947        2.0502058260
 Br         0.0002762530        4.7857234930       -2.3596173297
 Br         0.8329637604       -5.7176692792       -2.4470096872
 N          3.2603498163       -2.7631357457        2.8984827223
 N          1.3665652409       -4.1678781383        1.3431172605
 N         -1.3381043223        1.3750374488        4.1967808976
 N         -3.2495725433        0.1361695896       -2.0538684754
 N         -2.4010402342        1.9521614522        1.7036564284
 N         -2.0516408571       -0.3119909953       -4.5163515180
 N          3.9138690817        1.0368967789       -1.5574433514
 N          4.0343954174       -1.3225350106       -3.0987614501
 H          4.0110505396       -6.7015524636        3.7494450799
 H          5.6657817163       -6.6293459874        3.1354233597
 H          4.1341661078       -7.7747507434        1.5245172780
 H          4.8206914320       -6.3017711669        0.8332959631
 H         -4.9186179315        3.1487756529        5.1187252109
 H         -5.5498523409        1.7107728139        5.9308767559
 H         -5.6084997867        0.4963631915        3.7769172642
 H         -6.5342752662        1.9963528874        3.6527233693
 H         -4.0973122717        3.5472458004       -4.1465697403
 H         -5.8461747366        3.3095035804       -4.0696962957
 H         -4.9361560632        2.7355989296       -6.3242320387
 H         -5.6689086218        1.3322819371       -5.5405777086
 H          8.4609049923        1.1527298388       -1.6634861858
 H          7.7370875183       -0.3009799651       -0.9697312808
 H          8.5607679195       -0.7761608071       -3.2524186472
 H          7.5904064184        0.5514626489       -3.8973612919
 H          4.9641887990       -4.4410439556        4.1010643821
 H          5.3028303347       -4.2956940079        2.3740048354
 H          2.3883444904       -6.4313274677        0.3675050161
 H          2.0472652374       -6.5591632625        2.0945753786
 H         -3.5170442118        0.4374189696        5.2932437591
 H         -3.0805776463        1.8901659053        6.1982635213
 H         -4.5993531414        3.1225836473        2.5769101101
 H         -5.0664948481        1.6802001441        1.6650913292
 H         -5.5152698408        1.1032980928       -2.9748172992
 H         -4.7161384274        2.3783388630       -2.0515805954
 H         -2.6804101333        1.9750494354       -5.6237333880
 H         -3.4963856896        0.7174138556       -6.5577219651
 H          6.2140281654        2.0057600645       -2.2766670184
 H          6.2988749616        1.6726861405       -0.5454654413
 H          6.5018319101       -1.9511399157       -2.5185998524
 H          6.4351929537       -1.6120744709       -4.2504599045
 H          0.2284068567       -0.5694481399        4.1067250235
 H          0.2457107135       -1.3503523595       -1.1560592275
 H          0.9643749436        0.1450446290        0.8823701708
 H          0.4551866264       -0.3251832080       -4.3889789626
 H          4.2660496297       -0.4349418038        2.6919322636
 H         -1.1125782630       -4.0622061452        1.8494691241
 H          1.9859808828        3.1787312035        3.0634753657
 H         -3.8812515162       -1.3878446588       -0.0728882631
 H         -1.5700714581        3.3794760014       -0.2636679211
 H         -1.4070620181       -4.0241826639       -3.3488145408
 H          2.2871251113        2.8923382953       -2.1066713887
 H          2.8307674364       -3.5546051478       -2.8890182736
 H          1.4945693856       -2.6199129971        3.9719030851
 H          1.8165721523       -2.8175406648       -0.1638929882
 H         -0.3598618657        3.0876617961        3.5587300375
 H         -1.1836371322        0.2924362914       -2.0706345546
 H         -1.2248087659        0.2470419003        1.7733707644
 H         -2.7830349456       -2.1550612304       -3.9135029429
 H          3.1112847234       -0.1645884437       -0.0709305257
 H          2.8423208204       -0.0369412182       -4.2015492284
 H          2.5183684815       -4.5971094330        3.6193191430
 H          3.3755257487       -4.1672370022        0.7145719118
 H         -2.5692232333        3.0798666995        4.0580268053
 H         -3.2492373895        0.3797354302        2.8049612191
 H         -2.5334939446        1.7914239508       -3.1293087455
 H         -4.1512982168       -0.4420742123       -4.4412902029
 H          5.1650158632       -0.5220058000       -0.8978557165
 H          5.0166477530        0.3978551952       -3.8113215639
 C         -5.5242656446        6.9413623775        0.4208723006
 C         -5.4336909613        5.5441823451        1.0359367598
 O         -6.4381093497        7.7466440502        1.1468573590
 C         -6.0578619157        7.8264683135        2.5098352973
 C         -5.9670302193        6.4294373759        3.1267585259
 O         -5.0557424355        5.6206827733        2.4014945814
 H         -5.9035394272        6.8933088497       -0.5999363745
 H         -6.4080944549        5.0416363305        0.9540614229
 H         -5.0825720751        8.3284259595        2.5905882155
 H         -6.9604685824        5.9582151548        3.1199213597
 H         -4.6663656135        4.9501589913        0.5408664559
 H         -6.8238232162        8.4221544922        3.0065911144
 H         -5.5867978477        6.4808098935        4.1472603556
 H         -4.5310501592        7.4133062997        0.4288175088