142
-211.12691513
 C          3.3335029978       -5.2362856625        6.7657181325
 C          4.3003248074       -5.9804973325        5.8494299362
 C         -3.7760683131        4.8756030377        5.1703305577
 C         -5.0161404621        4.0504914358        4.8468787240
 C          7.5118929516        3.6191560104       -2.3215546887
 C          6.5845984637        4.6685937970       -1.7156102464
 C         -2.7876808666        2.5927612407       -7.7617320885
 C         -1.5254803574        1.8009871077       -8.0882360184
 C          3.3496041453       -3.7416177018        6.4640355897
 C          3.9593467504       -5.7204189724        4.3859926099
 C         -2.5299303430        4.0031047285        5.0910802918
 C         -4.8851817352        3.4272897300        3.4630204334
 C          7.2270753234        2.2429467324       -1.7290084530
 C          5.1243818569        4.2815572292       -1.9255238591
 C         -3.5325378324        1.9534783743       -6.5948890230
 C         -0.6225597591        1.7095188317       -6.8633444502
 C          0.9842207014        0.7156396161        3.7971371709
 C          4.4333779586       -1.6994673255        0.0444496250
 C         -3.4579384940        1.1486333413       -0.6890449222
 C          1.0637564158        1.0486963161       -2.1279427651
 C          3.3857398514        0.5452398750        3.7095677918
 C          2.7197561030       -3.3945181033        0.0963362905
 C          2.2946805136        2.6069328542        3.0810017445
 C          2.9486424392       -1.9598661765       -1.8331075777
 C         -4.3653116822       -0.9170302449        0.1531350429
 C          1.1919182917        0.2699615298        0.1486635486
 C         -4.0908559874       -0.5961816949       -2.2237384116
 C         -0.5187760030       -0.5820601226       -1.3228501290
 C          2.0600442075       -1.4406944393        4.3499752674
 C          4.2111511101       -3.1122799122        2.0518453452
 C         -0.1508908505        2.8490632089        3.2293033893
 C          4.5800196922       -0.1307276862       -1.8775644690
 C         -3.8047521194        0.8625653401        1.7539642578
 C          2.9401886500        1.7758870164       -0.6662324240
 C         -3.0946219446        1.4846879670       -3.1062078598
 C         -0.7013549633        0.1759644134       -3.6476335462
 C          2.1413958240       -0.0385063549        3.9606204478
 C          3.7929142502       -2.7406577613        0.7077080396
 C          1.0529685858        2.0389927152        3.3646857000
 C          4.0109816688       -1.2961987666       -1.2201518366
 C         -3.8591428207        0.3609792324        0.3877567650
 C          1.6952148668        1.0588630433       -0.8872455887
 C         -3.5693856377        0.6787759060       -1.9923750929
 C         -0.0308676570        0.2208039742       -2.3551909306
 C          3.4389470371        1.8521523998        3.2709866205
 C          2.3229585816       -2.9950967989       -1.1628030762
 C         -4.4804608504       -1.3672429318       -1.1492070609
 C          0.0858689568       -0.5222923586       -0.0833093407
 C          2.9834212858       -3.4856562642        4.9998351543
 C          3.9907915589       -4.2232489588        4.0851034443
 C         -2.3801462322        3.3666821670        3.7009300496
 C         -3.6336640177        2.5431874738        3.3641334976
 C          5.7723933982        1.8479590044       -1.9614891565
 C          4.8409857406        2.9192623790       -1.3021687202
 C         -2.6442656706        1.8692813009       -5.3563723477
 C         -1.3518767882        1.0557495546       -5.6932070841
 Br         5.1423210334        2.6426768079        2.9019245890
 Br         0.8449396949       -3.8692598662       -2.0045680957
 Br        -5.2078769282       -3.1053777059       -1.4688075117
 Br        -0.6026690759       -1.5845148461        1.3361145355
 N          3.0829039923       -2.0896791443        4.7043454522
 N          3.5965895283       -3.9808080228        2.7309758784
 N         -1.2444086298        2.4964840462        3.7491871309
 N          5.4678373254        0.5978028558       -1.3441958760
 N         -3.5482778768        2.0710784837        2.0137832248
 N          3.4991919579        2.4975704946       -1.5426449036
 N         -3.3049929912        1.1585007650       -4.3120685319
 N         -0.5329087403        1.0725155543       -4.5243853009
 H          2.3228403096       -5.6236254873        6.6188580146
 H          3.6087410453       -5.3985345935        7.8094165920
 H          4.2530230172       -7.0522266425        6.0498847735
 H          5.3208561185       -5.6452971841        6.0486713258
 H         -3.6907138222        5.7003851982        4.4592957355
 H         -3.8570610950        5.2999533854        6.1726323089
 H         -5.1342395446        3.2616672897        5.5929279436
 H         -5.9062815744        4.6813218340        4.8775044149
 H          7.3644082120        3.5846821554       -3.4035845110
 H          8.5522476760        3.8882765240       -2.1319235573
 H          6.7738490958        5.6413739340       -2.1726839188
 H          6.7836392973        4.7531185296       -0.6448656297
 H         -3.4423969534        2.6293080030       -8.6340076470
 H         -2.5161690343        3.6181359947       -7.5005475226
 H         -0.9840607721        2.2811169384       -8.9051215806
 H         -1.8008682439        0.7946833752       -8.4118604138
 H          2.6352156298       -3.2160848567        7.1015341053
 H          4.3409629466       -3.3263109139        6.6536802580
 H          4.6727342507       -6.2265806426        3.7325176504
 H          2.9627263414       -6.0993615981        4.1541923662
 H         -2.5841894603        3.2009817289        5.8295829586
 H         -1.6351120501        4.5934534921        5.3015944034
 H         -4.8131618704        4.2078949389        2.7031781152
 H         -5.7609953057        2.8161783112        3.2338537663
 H          7.4202055062        2.2438171485       -0.6552959915
 H          7.8713444654        1.4905329684       -2.1882595577
 H          4.8886966438        4.2373048364       -2.9899621456
 H          4.4662579432        5.0205814483       -1.4644259345
 H         -3.8549346810        0.9448471274       -6.8581852484
 H         -4.4209600810        2.5374049864       -6.3465971524
 H         -0.2979136169        2.7045845708       -6.5549961551
 H          0.2679933165        1.1202720966       -7.0904271519
 H          0.0139515179        0.2899116291        3.9977976580
 H          5.2575146329       -1.1724669454        0.4994654363
 H         -3.0654276142        2.1329470929       -0.4865472308
 H          1.4429412873        1.6659811808       -2.9255309076
 H          4.2763531743       -0.0440921104        3.8550053154
 H          2.2218797102       -4.1897976806        0.6273659383
 H          2.3624277121        3.6259840185        2.7304086682
 H          2.6082087853       -1.6551916161       -2.8112790325
 H         -4.6709973245       -1.5429403282        0.9778525996
 H          1.6697496795        0.2700462167        1.1166012883
 H         -4.1758332097       -0.9541243249       -3.2367755780
 H         -1.3590140966       -1.2372243863       -1.4925907837
 H          1.0610797356       -1.8934490367        4.2900595379
 H          5.0824655190       -2.5690233681        2.4439638652
 H         -0.0339297636        3.7981469580        2.6843493888
 H          4.1460075130        0.1104126877       -2.8593729939
 H         -4.0406543119        0.1314659524        2.5407284979
 H          3.4043676674        1.5984161804        0.3157194562
 H         -2.5302604042        2.3883480479       -2.8345668914
 H         -1.3714765350       -0.6809579739       -3.8024985370
 H          1.9710675166       -3.8736084181        4.7919729191
 H          4.9919105496       -3.8077624540        4.2952134838
 H         -2.2592258950        4.1585515329        2.9412873418
 H         -3.7074575609        1.7101057196        4.0846758416
 H          5.5375208585        1.8374064365       -3.0398265337
 H          5.0797003955        2.9300288249       -0.2258648897
 H         -2.3220766492        2.8746032428       -5.0345557318
 H         -1.6762034468        0.0344292381       -5.9539774769
 C         -6.7744794823        0.7718626217       -3.8545669359
 C         -7.6249641943        1.9317468112       -4.3728271460
 O         -6.7173477755        0.7944588901       -2.4352579552
 C         -8.0221758025        0.7427044100       -1.8831405758
 C         -8.8725055012        1.9032311787       -2.4028139598
 O         -8.9291393094        1.8858771813       -3.8183337000
 H         -5.7440163939        0.8556962695       -4.2021298589
 H         -7.1460123252        2.8849665663       -4.1048921498
 H         -8.4973163550       -0.2118431792       -2.1517566678
 H         -8.4384053606        2.8552197399       -2.0635184888
 H         -7.7524314328        1.8694450760       -5.4534750244
 H         -7.8987557979        0.8051529144       -0.8015866234
 H         -9.9021921403        1.8187195565       -2.0551178202
 H         -7.2110802272       -0.1810037732       -4.1863307301