142
-211.12885263
 C          3.8232049420       -6.3493242384        3.2839519380
 C          2.9647713386       -6.7227583018        2.0798128216
 C         -2.7441380497        4.4111242666        6.1582728208
 C         -3.7073741601        4.0651887319        5.0272366301
 C         -4.4819542566        4.5575723480       -2.7196078927
 C         -4.9186536249        3.7633918427       -3.9465796999
 C          7.2700222015       -0.8983775658       -2.7281333928
 C          6.8033464806       -1.6154162489       -3.9908448328
 C          4.1887159002       -4.8702306346        3.2361374580
 C          1.7068355058       -5.8636980752        2.0377741833
 C         -1.5187128501        3.5053640020        6.1111844380
 C         -3.0088828769        4.1824094312        3.6770983859
 C         -4.2957688864        3.6299322943       -1.5241175742
 C         -3.9000304201        2.6757974848       -4.2689463059
 C          6.2838828795        0.1983978596       -2.3449542154
 C          5.4099579749       -2.1983223618       -3.7852191387
 C          2.1102140736        0.6545128857        3.9563653824
 C         -0.7609169497       -0.8450504544        0.3605175861
 C          1.3856414827        1.6239879942        0.4844436592
 C         -0.3620442626       -0.8472002067       -3.2986549499
 C          4.1140514174        0.0858328230        2.7466374086
 C         -1.5395745980       -2.0990332209        2.2619696828
 C          3.4526181666        2.3979603688        2.9763028091
 C         -2.8649103516       -0.2763591305        1.3844759281
 C          0.3896947511        3.7465855943       -0.0647823430
 C         -1.7484719340       -2.5506927953       -2.3113527836
 C          2.1606441367        2.8425060202       -1.4412910091
 C          0.6270736026       -2.9158061294       -2.5607512710
 C          2.6971476812       -1.7230979991        3.6748146717
 C          0.6253693717       -2.6967933532        1.2119231408
 C          1.3236690254        2.9997948043        4.0583468732
 C         -2.0641535123        1.0160446088       -0.5760725619
 C         -0.4073779058        2.4931392954        1.9226090451
 C         -2.7582462396       -0.3793943854       -2.8911053635
 C          3.2016765334        0.6636899664       -0.8771441395
 C          2.0774876315       -1.1329603602       -3.4905348092
 C          2.9873755650       -0.3094783980        3.4727349648
 C         -0.5746142108       -1.8740954229        1.2784835731
 C          2.3246956905        2.0074706061        3.6970260828
 C         -1.8974354763       -0.0416087450        0.4082374579
 C          0.4587755352        2.6256873877        0.7615947956
 C         -1.6168168939       -1.2820249068       -2.8745343626
 C          2.2411679550        1.7250445810       -0.6083903935
 C          0.7625427012       -1.6470310428       -3.1303795739
 C          4.3306892760        1.4300710589        2.5220057340
 C         -2.6639107553       -1.2966341020        2.2958494984
 C          1.2365838700        3.8290776195       -1.1547708232
 C         -0.6254142377       -3.3468630255       -2.1733708332
 C          2.9360522267       -3.9955848617        3.1987176121
 C          2.0601300645       -4.3761975527        1.9775047272
 C         -0.7981460824        3.6284595062        4.7711814073
 C         -1.7879011882        3.2705644045        3.6136206626
 C         -3.2650747589        2.5485828212       -1.8308592972
 C         -3.7148004179        1.7294438795       -3.0858639280
 C          4.8832694209       -0.3764724730       -2.1237338197
 C          4.4090136845       -1.1076545341       -3.4058367913
 Br         5.8663444897        1.9729365065        1.5234231663
 Br        -3.9770698828       -1.5955659233        3.6512996858
 Br         1.1155927454        5.3502649463       -2.3043234398
 Br        -0.8129341785       -5.0776055377       -1.3865946526
 N          3.3168092998       -2.6243206587        3.0438339942
 N          0.8582744379       -3.6083680134        2.0516886223
 N          0.2658280499        2.6867934976        4.6790082147
 N         -3.1558770278        1.6338812514       -0.7396736624
 N         -1.0877215148        3.4551678958        2.3826249383
 N         -2.6661667747        0.8006922412       -3.3397113596
 N          3.9731310910        0.6955519952       -1.8742743301
 N          3.1398989045       -1.7034225036       -3.1160050917
 H          3.2713715541       -6.5580189185        4.2031837673
 H          4.7351692557       -6.9486197261        3.2947512473
 H          2.6814509499       -7.7750880568        2.1325458192
 H          3.5379261578       -6.5735847424        1.1621119291
 H         -2.4292936340        5.4529118003        6.0633464709
 H         -3.2429906442        4.2961442771        7.1219001850
 H         -4.0718948942        3.0439559599        5.1592275926
 H         -4.5676565117        4.7359737673        5.0509913027
 H         -3.5400820238        5.0682029791       -2.9324954429
 H         -5.2294959891        5.3153184597       -2.4794995043
 H         -5.0222013465        4.4290534232       -4.8050157625
 H         -5.8912170130        3.3045953992       -3.7549075431
 H          8.2550589566       -0.4576040007       -2.8888683966
 H          7.3516993580       -1.6163291727       -1.9090991253
 H          7.4985781085       -2.4171128368       -4.2455495816
 H          6.7827521679       -0.9093317469       -4.8239530402
 H          4.7803791631       -4.5945266648        4.1115322961
 H          4.7840395509       -4.6568777366        2.3466866144
 H          1.1005724179       -6.1137933768        1.1650525556
 H          1.1007756219       -6.0362239249        2.9284958586
 H         -1.8119667090        2.4636968778        6.2513983337
 H         -0.8191702115        3.7691606895        6.9070721877
 H         -2.6835735368        5.2096035236        3.5046309914
 H         -3.6902851949        3.9037418363        2.8713044603
 H         -5.2394324778        3.1461072476       -1.2670750689
 H         -3.9569653447        4.1942895050       -0.6535274628
 H         -2.9335407611        3.1220153236       -4.5091339205
 H         -4.2252676460        2.0901256440       -5.1310611018
 H          6.2259051745        0.9484552229       -3.1351982925
 H          6.6042667783        0.6989115050       -1.4292579326
 H          5.4261000758       -2.9431080424       -2.9876944431
 H          5.0626274856       -2.6886521298       -4.6969780431
 H          1.2303666514        0.3734568348        4.5141552768
 H         -0.0193173768       -0.6691005657       -0.4057774933
 H          1.4446675921        0.7620950243        1.1338590762
 H         -0.2811465318        0.1387468982       -3.7294279773
 H          4.7885890742       -0.6690803662        2.3756455356
 H         -1.3866526263       -2.8973116221        2.9702029293
 H          3.6312516946        3.4418434221        2.7665813620
 H         -3.7441786875        0.3470276625        1.4102059652
 H         -0.3265140972        4.5201177210        0.1609917487
 H         -2.7132014790       -2.8997306176       -1.9753189546
 H          2.8250225415        2.9116612306       -2.2875030459
 H          1.5044539042       -3.5294379805       -2.4333743859
 H          1.8868219334       -1.9482624978        4.3819143576
 H          1.3116897868       -2.4673334820        0.3812142116
 H          1.5165487368        4.0250494385        3.7096483671
 H         -1.1705662156        1.2369025851       -1.1781861290
 H         -0.4208207532        1.4939146524        2.3824914024
 H         -3.6831141462       -0.7629258929       -2.4378509883
 H          3.2079272751       -0.1642778408       -0.1502268600
 H          2.0822288905       -0.2023107475       -4.0746899864
 H          2.3243245040       -4.1496098603        4.1037439459
 H          2.6352198989       -4.1517195056        1.0616670385
 H         -0.4540870366        4.6638588700        4.6028751388
 H         -2.0771432767        2.2170679611        3.7612797943
 H         -2.2895948211        2.9968981253       -2.0812996125
 H         -4.6630893001        1.2259032756       -2.8317714488
 H          4.8917562857       -1.1085568552       -1.2967813919
 H          4.3318539181       -0.3524371647       -4.2062979858
 C         -6.7533003587       -2.7621141783       -4.2168406464
 C         -7.6308578143       -3.4646130345       -5.2543216786
 O         -6.4948363653       -1.4219965457       -4.6029186217
 C         -7.7092568518       -0.7146142284       -4.7984070553
 C         -8.5849751422       -1.4196391122       -5.8355303170
 O         -8.8437276178       -2.7568535180       -5.4429653123
 H         -5.7814278539       -3.2500695679       -4.1389274326
 H         -7.0898220314       -3.5298960572       -6.2095386236
 H         -8.2512133445       -0.6460547886       -3.8440437747
 H         -8.0770680712       -1.4141179978       -6.8108630572
 H         -7.9087994684       -4.4627792616       -4.9157008264
 H         -7.4300439707        0.2815184063       -5.1412653992
 H         -9.5566306856       -0.9327910403       -5.9193235003
 H         -7.2586636933       -2.7717023324       -3.2400390480