142
-211.12764027
 C          4.2010666818       -6.3674533136        2.6930811220
 C          3.5434743147       -6.6494768251        1.3459294442
 C         -3.8810623103        2.9984741696        6.0792132141
 C         -4.7103836296        2.5038883890        4.8983351428
 C         -4.5494791922        3.4158137430       -4.4984423228
 C         -4.6142768821        2.5359581893       -5.7431664607
 C          7.6004793994        0.1180105055       -1.7070621067
 C          7.5766553033       -0.5441380710       -3.0810902953
 C          4.4225892281       -4.8699418026        2.8736936946
 C          2.2275737345       -5.8902327326        1.2241552844
 C         -2.5105749304        2.3312728845        6.0844787291
 C         -3.9807598268        2.7659285660        3.5854741440
 C         -4.4031402639        2.5583959114       -3.2468084622
 C         -3.3782965405        1.6478353639       -5.8353570141
 C          6.3359027237        0.9399569940       -1.4870965108
 C          6.3332195342       -1.4133976965       -3.2316479119
 C          1.6471574383        0.2444828491        4.0317021767
 C         -0.5083562252       -1.1825606890       -0.6132715698
 C          0.9864759356        1.1438537944        0.6251577820
 C          0.4616994907       -1.2002377059       -4.0843391627
 C          3.8458728586        0.1029454626        3.0598845238
 C         -1.3295963561       -2.3712945426        1.3119031118
 C          2.8200103429        2.2599222018        3.4318190766
 C         -2.7427891449       -0.7675163096        0.1796989457
 C         -0.4533409236        2.9515958775       -0.0498344256
 C         -0.7769350430       -3.1799684552       -3.4968912495
 C          1.5689610470        2.4785122160       -1.2904973518
 C          1.6245711346       -3.1286612817       -3.2299484838
 C          2.5813210735       -1.9770843712        3.5458318878
 C          0.9624617912       -2.8308239708        0.4741789439
 C          0.4946182987        2.4172856362        4.2465304559
 C         -1.9070672626        0.4482113073       -1.8123552335
 C         -1.0362515802        1.5969008722        1.9460762592
 C         -2.0063344639       -1.1575769116       -4.1927051618
 C          3.0723945028        0.6346186990       -0.5822033240
 C          2.8873186238       -1.0471457271       -3.7071282649
 C          2.7074088761       -0.5261958799        3.5697668344
 C         -0.3089017114       -2.1244985648        0.3919044722
 C          1.6825517749        1.6349936754        3.9398742245
 C         -1.7210593433       -0.5092674488       -0.7319980587
 C         -0.1645879675        1.9024598106        0.8211931908
 C         -0.7568285571       -1.8662034524       -3.9623851382
 C          1.8651456020        1.4325221811       -0.4149188138
 C          1.6481676267       -1.8123014307       -3.6977022176
 C          3.8868535297        1.4819185085        3.0180337218
 C         -2.5211870237       -1.6821877418        1.1924149680
 C          0.4126351592        3.2097311957       -1.0965833027
 C          0.4161970628       -3.7910035890       -3.1542034134
 C          3.1024293542       -4.1079692647        2.7620728370
 C          2.4521633485       -4.3839359695        1.3851336489
 C         -1.7643069869        2.6077389397        4.7811759132
 C         -2.6137661835        2.0890710161        3.5779028534
 C         -3.1508571260        1.6918526203       -3.3280185416
 C         -3.2388245739        0.7753545827       -4.5898482568
 C          5.0884001919        0.0615405079       -1.6164707079
 C          5.0649836760       -0.5870271374       -3.0217804416
 Br         5.4464407363        2.3472884912        2.3335878983
 Br        -3.9025643779       -1.9828176802        2.4746230706
 Br        -0.0135528896        4.6093441377       -2.3219984255
 Br         0.3796891040       -5.5930519818       -2.5204175720
 N          3.3469334383       -2.7000594426        2.8498343887
 N          1.1893307753       -3.7147063435        1.3452017861
 N         -0.5404948060        1.8816072385        4.7371963412
 N         -3.0492573633        0.8486091854       -2.1772157092
 N         -1.9043647987        2.4084713747        2.3771576753
 N         -2.0258731475        0.0309402278       -4.6250858856
 N          3.9210089036        0.8760241612       -1.4838851406
 N          3.9145817510       -1.4366460433       -3.0853942105
 H          3.5600228964       -6.7389169847        3.4956686726
 H          5.1583336865       -6.8873109612        2.7585393165
 H          3.3532658387       -7.7183631545        1.2375097568
 H          4.2146150777       -6.3436389240        0.5403782847
 H         -3.7570281636        4.0816987108        6.0098510372
 H         -4.3955767769        2.7774477901        7.0156953030
 H         -4.8915591301        1.4320486290        5.0027887430
 H         -5.6771491809        3.0092773789        4.8855536998
 H         -3.6962232776        4.0932022023       -4.5740239096
 H         -5.4540119689        4.0206719803       -4.4191963689
 H         -4.6811957608        3.1574455034       -6.6375899322
 H         -5.5083699630        1.9093625425       -5.7005637562
 H          8.4720287520        0.7684786256       -1.6190856386
 H          7.6735607191       -0.6490514284       -0.9329913537
 H          8.4685339447       -1.1583615280       -3.2160404386
 H          7.5770810465        0.2257522071       -3.8559094711
 H          4.8643468837       -4.6643289732        3.8509231567
 H          5.1048803280       -4.4934167152        2.1096439231
 H          1.7690572153       -6.0764837546        0.2515404416
 H          1.5274082304       -6.2188468473        1.9937722675
 H         -2.6156908355        1.2514577364        6.1999363601
 H         -1.9083066957        2.7035715973        6.9158556348
 H         -3.8379743447        3.8372646341        3.4347024552
 H         -4.5633447070        2.3809848531        2.7472602256
 H         -5.2686393565        1.9041022623       -3.1339474634
 H         -4.3448973710        3.1882428798       -2.3580291781
 H         -2.4795714698        2.2589600223       -5.9311985294
 H         -3.4406328219        0.9979120748       -6.7108223639
 H          6.2714999258        1.7418889460       -2.2241576402
 H          6.3458642256        1.3954200029       -0.4955479485
 H          6.3451014393       -2.2215476202       -2.4983072645
 H          6.2988698114       -1.8617197732       -4.2267473029
 H          0.7586150236       -0.2185349049        4.4319438513
 H          0.2834490968       -0.9813306158       -1.3204505144
 H          1.2082729725        0.3293537965        1.2996915202
 H          0.4548388677       -0.1848449479       -4.4490724259
 H          4.6662657720       -0.5012359024        2.7073287831
 H         -1.1655499659       -3.0951689367        2.0939365869
 H          2.8639548219        3.3359436679        3.3558346115
 H         -3.6787597032       -0.2421397983        0.0809890492
 H         -1.3485172032        3.5322887818        0.1050675921
 H         -1.7124851517       -3.7094800138       -3.3974041894
 H          2.2495527628        2.6931791166       -2.0986744254
 H          2.5497350573       -3.5973261630       -2.9352797803
 H          1.7460046963       -2.3928044067        4.1262115057
 H          1.7083433857       -2.5430025552       -0.2835316760
 H          0.5315884191        3.4812378511        3.9695889206
 H         -0.9804252375        0.7860857377       -2.2986791134
 H         -0.8676522754        0.6140331894        2.4100771515
 H         -2.9240839933       -1.6951102218       -3.9113502584
 H          3.1934364748       -0.1900686095        0.1378852620
 H          2.8520928968       -0.0888467459       -4.2434267241
 H          2.3932247699       -4.4452669567        3.5373534121
 H          3.1336261913       -4.0141444269        0.5984369698
 H         -1.6101456417        3.6921083297        4.6397947176
 H         -2.7166967212        1.0000751763        3.7105503984
 H         -2.2509913468        2.3148676077       -3.4528395150
 H         -4.1216149990        0.1229217849       -4.4674109147
 H          5.1098342103       -0.7446311496       -0.8616962738
 H          5.0071183808        0.2292346462       -3.7621245856
 C         -8.9134942998        3.3456420724        0.1469228295
 C         -7.9496180093        3.5411028299       -1.0252917069
 O         -8.6705119171        2.1056970595        0.7901958950
 C         -7.3259499121        2.0289087723        1.2331399348
 C         -6.3645152046        2.2212938482        0.0589177340
 O         -6.6051793665        3.4608933827       -0.5838747782
 H         -9.9468568134        3.3127416437       -0.1986344135
 H         -8.1339815179        2.7672977953       -1.7844488977
 H         -7.1441803104        2.8072491387        1.9880278253
 H         -6.4960811151        1.4017853582       -0.6617360772
 H         -8.0673479753        4.5307305769       -1.4669510081
 H         -7.2066673637        1.0417131403        1.6803131679
 H         -5.3288596946        2.2522767544        0.3974039071
 H         -8.7856479920        4.1652123035        0.8688977219