142
-211.13042995
 C          3.1611064925       -6.7679557791        2.5535397354
 C          2.7486368176       -6.9706132954        1.0993204042
 C         -4.4727704943        3.4813162749        4.8555928378
 C         -5.0714774198        3.2974957609        3.4650029354
 C         -3.6839095912        4.8071590330       -4.0110067300
 C         -3.6628380346        4.2288865391       -5.4223608778
 C          7.9244112013       -0.3391789567       -1.3323244390
 C          7.8943989666       -0.8681543206       -2.7625955664
 C          3.4247152047       -5.2920357726        2.8277168738
 C          1.5114661798       -6.1407837374        0.7791846205
 C         -3.2580996672        2.5771857308        5.0279263960
 C         -4.0312685439        3.6047081246        2.3937996835
 C         -3.8057904782        3.6911948765       -2.9793824934
 C         -2.5175910632        3.2340781381       -5.5743880755
 C          6.8036374125        0.6703211537       -1.1156944601
 C          6.5405196055       -1.4994243218       -3.0660553774
 C          0.9384042129        0.0477007939        3.6175411945
 C         -0.6887310937       -0.9566947971       -0.8039138962
 C          1.2049293397        1.5618171565        0.2754220101
 C          0.8000857063       -0.3370097467       -4.1228646248
 C          3.2367557141       -0.3393912783        3.0090762773
 C         -1.9193831816       -2.5813253355        0.4759039608
 C          2.4383929518        1.9141880913        3.3532141648
 C         -3.0547068292       -0.6626854903       -0.4615382114
 C          0.2913889724        3.7288011168       -0.2423945373
 C         -0.6975413562       -2.2047827936       -3.8579409590
 C          2.4395810535        3.0705953941       -1.1365960903
 C          1.6660777987       -2.4781353348       -3.4391706752
 C          1.6903417128       -2.2645558078        3.1952392953
 C          0.5126722566       -2.8994745015        0.1275577491
 C          0.0611883578        2.3551909262        3.8183601554
 C         -1.7880780623        1.0031821196       -1.7957627336
 C         -0.9769052176        2.1825887921        1.2252204029
 C         -1.6358161233        0.0099839728       -4.3893806699
 C          3.3982949150        0.8491904367       -0.5958233737
 C          3.2045471491       -0.5436985223       -3.6254390364
 C          1.9612329330       -0.8356931482        3.2918245311
 C         -0.7131416772       -2.1377848236       -0.0688785892
 C          1.1635844424        1.4236847605        3.6330646149
 C         -1.8497965608       -0.2126579485       -1.0002831733
 C          0.1804194439        2.4967207924        0.4009456829
 C         -0.4916641306       -0.8596244060       -4.1616470701
 C          2.3375505644        1.8409415309       -0.4835284147
 C          1.8772581205       -1.1318893577       -3.7487283085
 C          3.4534796936        1.0225546055        3.0554458847
 C         -3.0646603899       -1.8371780568        0.2678296034
 C          1.4146776859        3.9880108548       -1.0059630830
 C          0.3868126697       -2.9907325445       -3.5102497708
 C          2.1923372539       -4.4434654353        2.5152838294
 C          1.7616990223       -4.6541748166        1.0407133385
 C         -2.1965600575        2.8844050165        3.9754039114
 C         -2.8107128926        2.7033611629        2.5479103161
 C         -2.6550843486        2.6992115592       -3.1124922505
 C         -2.6372881555        2.1010844477       -4.5586417201
 C          5.4381286636        0.0435813788       -1.4045427483
 C          5.4073218674       -0.4956189013       -2.8580141041
 Br         5.1949720847        1.7035189211        2.6650045485
 Br        -4.7090439261       -2.4496578818        1.0054143550
 Br         1.5464448089        5.6635769845       -1.9146214798
 Br         0.0938271156       -4.8289394356       -3.0804506148
 N          2.5209057194       -3.0596089261        2.6735052531
 N          0.5421546655       -3.9387514800        0.8411961925
 N         -1.1169870611        1.9598954683        4.0584427054
 N         -2.8204195694        1.6099464505       -2.2044678160
 N         -1.7992583166        3.0646223757        1.6065953459
 N         -1.4985743857        1.2483642277       -4.6136890109
 N          4.4298697954        1.0487650528       -1.2933833534
 N          4.1484481094       -1.1505589450       -3.0464743634
 H          2.3648495065       -7.1238974761        3.2110157816
 H          4.0617714120       -7.3441231409        2.7720702100
 H          2.5344340232       -8.0240649970        0.9128280609
 H          3.5679139050       -6.6716156828        0.4418259893
 H         -4.1742419675        4.5234195280        4.9933301092
 H         -5.2154191841        3.2396183875        5.6175352568
 H         -5.4099031999        2.2657061642        3.3515628836
 H         -5.9314020429        3.9569934477        3.3366469390
 H         -2.7624092216        5.3661141412       -3.8331892599
 H         -4.5226909716        5.4964708284       -3.9020767051
 H         -3.5454002983        5.0309087212       -6.1527945280
 H         -4.6107929420        3.7247296285       -5.6239718532
 H          8.8840782215        0.1381661710       -1.1284608940
 H          7.8058324232       -1.1695290283       -0.6327860910
 H          8.6814219484       -1.6107116545       -2.9044526343
 H          8.0765379408       -0.0462956727       -3.4585911313
 H          3.6955510461       -5.1401780380        3.8746178299
 H          4.2516812551       -4.9357955488        2.2110697813
 H          1.2252028616       -6.2666205745       -0.2667305541
 H          0.6715077280       -6.4601246680        1.3980068865
 H         -3.5521914635        1.5318312213        4.9255698211
 H         -2.8160655290        2.7122991554        6.0173633500
 H         -3.7058789722        4.6443289401        2.4622986504
 H         -4.4529811407        3.4460884643        1.3997161136
 H         -4.7454055176        3.1521693724       -3.1107681646
 H         -3.7911564908        4.1037828292       -1.9690435277
 H         -1.5593729481        3.7337719703       -5.4231209610
 H         -2.5184518851        2.8025280747       -6.5774325144
 H          6.9339301633        1.5284679923       -1.7767734965
 H          6.8097769992        1.0343007832       -0.0865930730
 H          6.3671843068       -2.3545740384       -2.4105359824
 H          6.5070663386       -1.8541136265       -4.0982439697
 H         -0.0559258896       -0.3106045137        3.8348632454
 H          0.2399471154       -0.6138833216       -1.2378343926
 H          1.1212756468        0.6125376858        0.7852898646
 H          0.9368949815        0.7066941139       -4.3598688749
 H          4.0235777283       -1.0329649048        2.7592761389
 H         -1.9300382763       -3.4999389183        1.0402578632
 H          2.6271279975        2.9771630405        3.3599202794
 H         -3.9497266584       -0.0831851431       -0.6222598557
 H         -0.5038177834        4.4487969645       -0.1345666306
 H         -1.6923072576       -2.6236470220       -3.8828623281
 H          3.3189359835        3.2774819700       -1.7249233574
 H          2.5077145645       -3.0866589061       -3.1495172450
 H          0.7138781576       -2.5945396642        3.5761612446
 H          1.4039812055       -2.5079773867       -0.3881803314
 H          0.3061110693        3.4195102644        3.6864450745
 H         -0.7726032136        1.3542243670       -2.0318274880
 H         -1.0781382565        1.1241064635        1.5074389096
 H         -2.6245949987       -0.4632047954       -4.2987964059
 H          3.2385519125       -0.0818113606       -0.0284479099
 H          3.3181000066        0.4690342426       -4.0361780081
 H          1.3415862400       -4.7381574414        3.1527561716
 H          2.5718669595       -4.2763468769        0.3922781929
 H         -1.8541362054        3.9311026424        4.0559739403
 H         -3.0956665343        1.6423930538        2.4576574681
 H         -1.6849140745        3.2027215027       -2.9680343544
 H         -3.5812368188        1.5457071481       -4.6966455381
 H          5.2493427110       -0.8043986553       -0.7225682976
 H          5.5221920587        0.3696428379       -3.5325314513
 C         -7.1444678894       -2.0582557585        4.3326371658
 C         -6.4125795465       -0.7348784191        4.5617502393
 O         -8.4242753301       -1.8251407322        3.7698000573
 C         -8.3013242606       -1.1163071986        2.5482173536
 C         -7.5739933407        0.2103644985        2.7716914118
 O         -6.2969882476       -0.0072731173        3.3502677656
 H         -7.3144716341       -2.5766849499        5.2763258960
 H         -6.9632639655       -0.1322224457        5.2987579348
 H         -7.7397341100       -1.7264375285        1.8267098705
 H         -8.1714472598        0.8503813371        3.4372428046
 H         -5.3951643744       -0.9114764698        4.9106368009
 H         -9.3163714894       -0.9473329409        2.1887490046
 H         -7.3966468119        0.7206165141        1.8249796849
 H         -6.5556970886       -2.6904108881        3.6528962110