142
-211.12815906
 C          3.6994833198       -6.8361211570        2.2630001979
 C          3.4835072964       -7.0091764594        0.7630003798
 C         -5.8272800613        1.6897158665        3.5798771082
 C         -6.1013999114        1.5041291034        2.0908542385
 C         -3.8058706115        3.8864965844       -5.0086202805
 C         -3.5036065510        3.3387431093       -6.3997641483
 C          7.9469575446        0.4343424052       -0.6140630172
 C          8.1982536487        0.0064359471       -2.0563498244
 C          3.7085469842       -5.3567789220        2.6307478150
 C          2.1825990892       -6.3424469851        0.3323217104
 C         -4.5013246426        1.0444202094        3.9659538079
 C         -4.9623505626        2.0891926738        1.2637309490
 C         -3.8947611744        2.7502396718       -3.9959979058
 C         -2.2087033149        2.5342552242       -6.3861257650
 C          6.6564521609        1.2388803798       -0.5156458215
 C          7.0205013280       -0.8066894059       -2.5809512724
 C          0.2729084296       -0.5476555794        3.3014715156
 C         -0.4761525580       -1.4532709731       -1.4087722797
 C          0.8468780804        1.1512643584        0.0675159812
 C          1.3843964884       -0.5057508746       -4.4530015564
 C          2.6650806288       -0.4883051200        3.0282480002
 C         -1.6412673378       -3.1977108490       -0.2282119939
 C          1.4260044920        1.5666351820        3.3140448295
 C         -2.8822668614       -1.4282490201       -1.3129486247
 C         -0.3298540064        3.1763021013       -0.4932181077
 C          0.1901554122       -2.5976302852       -4.4700166894
 C          2.0075172178        2.9318006785       -1.0626024554
 C          2.4775079153       -2.5144169412       -3.6966865440
 C          1.4763328470       -2.6621018962        2.9210605900
 C          0.8355047685       -3.2432787861       -0.3356907638
 C         -1.0374576516        1.5471325948        3.4105221216
 C         -1.6838877128        0.3698074996       -2.5312529679
 C         -1.5283640107        1.3425237419        0.6699644591
 C         -1.0074954600       -0.5356088032       -5.0889675630
 C          3.2307592199        0.8541947318       -0.4859191150
 C          3.6890284212       -0.3553121335       -3.5906262010
 C          1.4752779728       -1.2170365309        3.1063845428
 C         -0.4432968182       -2.6276588193       -0.6628967032
 C          0.2362061328        0.8434002532        3.3855469872
 C         -1.6870467593       -0.8485183146       -1.7363987297
 C         -0.3274692862        1.8998419770        0.0680094931
 C          0.2160725535       -1.2235974519       -4.7052683281
 C          2.0162409464        1.6580668140       -0.4912016272
 C          2.5090247852       -1.1377767323       -3.9351832005
 C          2.6188889881        0.8860055833        3.1450800806
 C         -2.8354242635       -2.5863729869       -0.5589143085
 C          0.8361902739        3.6646397966       -1.0532936637
 C          1.3246771924       -3.2186126635       -3.9784099225
 C          2.4048160354       -4.6797665382        2.2101086671
 C          2.1875633659       -4.8535790978        0.6851006045
 C         -3.3486105845        1.6284477481        3.1534741607
 C         -3.6355956872        1.4314542954        1.6278873160
 C         -2.5996817942        1.9450856827       -3.9641471328
 C         -2.2909919961        1.3804787505       -5.3900146742
 C          5.4643505958        0.4284356813       -1.0285807793
 C          5.7201025923       -0.0086120890       -2.4939375099
 Br         4.2433008404        1.8855714613        3.0295069918
 Br        -4.4734973210       -3.3555495847        0.0532642894
 Br         0.8211935035        5.4014435936       -1.8495337881
 Br         1.2770738291       -5.0997683118       -3.6474424481
 N          2.4861476805       -3.2752837799        2.4754313681
 N          0.9151741780       -4.2920345123        0.3602322836
 N         -2.1391696801        0.9238972983        3.4118267043
 N         -2.7257907323        0.8290563732       -3.0820198809
 N         -2.5607099944        2.0343776887        0.9066798813
 N         -1.0370072175        0.7150225750       -5.2815627756
 N          4.2999358800        1.2552636435       -1.0211552485
 N          4.6240016196       -0.8382510782       -2.8928491702
 H          2.8978155526       -7.3407726293        2.8067995981
 H          4.6462312640       -7.2902901535        2.5602038443
 H          3.4464529974       -8.0696397885        0.5090741397
 H          4.3184394104       -6.5616023459        0.2194332675
 H         -5.7911557937        2.7556085876        3.8148885386
 H         -6.6307352897        1.2414915875        4.1662964396
 H         -6.2007880326        0.4391839197        1.8687945885
 H         -7.0377672066        1.9940210614        1.8190282342
 H         -3.0143949512        4.5774361359       -4.7096606496
 H         -4.7476333036        4.4374276999       -5.0205324430
 H         -3.4127959082        4.1596193842       -7.1128940216
 H         -4.3259154861        2.6977085361       -6.7258633012
 H          8.7786036187        1.0408578577       -0.2521707505
 H          7.8733042102       -0.4504624643        0.0220399554
 H          9.1086194626       -0.5923563130       -2.1166353653
 H          8.3351676982        0.8923589448       -2.6804048458
 H          3.8350182349       -5.2317238379        3.7081142896
 H          4.5365581829       -4.8487978461        2.1334019101
 H          2.0377352784       -6.4455928669       -0.7447191783
 H          1.3333491871       -6.8107453506        0.8322384111
 H         -4.5377213103       -0.0318587647        3.7891623295
 H         -4.2954336486        1.2085332992        5.0253751736
 H         -4.8770804505        3.1628212699        1.4388573380
 H         -5.1454211233        1.9339017374        0.1990341278
 H         -4.7149808203        2.0769924902       -4.2503306534
 H         -4.0800321511        3.1460090011       -2.9958343846
 H         -1.3692202372        3.1727501761       -6.1062755217
 H         -2.0047036378        2.1235426151       -7.3771233497
 H          6.7325628387        2.1506240547       -1.1101058468
 H          6.4624888846        1.5273721759        0.5192118381
 H          6.9027673329       -1.7209475820       -1.9967592668
 H          7.1861526880       -1.0912215570       -3.6220962804
 H         -0.6596159438       -1.0874777099        3.3576768239
 H          0.4479901990       -1.0068589668       -1.7475439337
 H          0.8483995792        0.1670457694        0.5142067511
 H          1.3823782873        0.5569291382       -4.6399832341
 H          3.5930573148       -1.0155498254        2.8752629463
 H         -1.6065998746       -4.1051137404        0.3528717657
 H          1.4139574611        2.6443689100        3.3768049518
 H         -3.8151801191       -0.9567946231       -1.5766975419
 H         -1.2425524869        3.7501252769       -0.4835013407
 H         -0.7076767841       -3.1666042354       -4.6590701936
 H          2.9173935106        3.3157949452       -1.4949379891
 H          3.3549141983       -2.9956499382       -3.2952921560
 H          0.5330734798       -3.1736310918        3.1575963374
 H          1.7241223265       -2.7316754618       -0.7388749255
 H         -0.9834089909        2.6446756896        3.3659419077
 H         -0.7044932539        0.8612457905       -2.6280509998
 H         -1.4738004000        0.2709950466        0.9123466520
 H         -1.9116260660       -1.1593797182       -5.1467538563
 H          3.1496006670       -0.1239276846        0.0144241105
 H          3.6943914637        0.6840090069       -3.9470718721
 H          1.5426302737       -5.1415700596        2.7204890056
 H          3.0103923639       -4.3351453547        0.1616498060
 H         -3.2484567736        2.7124445701        3.3354301884
 H         -3.6774122956        0.3435539020        1.4544247169
 H         -1.7461942127        2.5858299842       -3.6880402414
 H         -3.1090475101        0.6883516123       -5.6554191047
 H          5.3251972170       -0.4825411689       -0.4198222071
 H          5.7821264115        0.9077596076       -3.1050505530
 C         -6.3299731194        5.6830579188        8.5913037275
 C         -5.9602767195        5.0586118907        7.2445165074
 O         -7.3470809564        4.9278899258        9.2275035331
 C         -6.9374566440        3.5812489828        9.3978207297
 C         -6.5676400049        2.9575062231        8.0507609250
 O         -5.5491906260        3.7123685826        7.4148783393
 H         -6.7333631058        6.6869510460        8.4581205871
 H         -6.8299280984        5.0947430169        6.5725297867
 H         -6.0692870142        3.5436300379       10.0717352407
 H         -7.4567759659        2.9243124376        7.4050013723
 H         -5.1173148486        5.5805692612        6.7912653313
 H         -7.7816231531        3.0605733432        9.8499651922
 H         -6.1660608510        1.9528926230        8.1833627199
 H         -5.4404122519        5.7191433246        9.2368263386