142
-211.12753090
 C          5.5254875570       -5.7385950675        3.5475007087
 C          4.7479823658       -6.3478950277        2.3852576252
 C         -3.2537529009        3.3500076777        6.2033777229
 C         -4.1366353552        2.7244356947        5.1281928033
 C         -5.2033574246        2.6236748629       -2.7035152801
 C         -5.4766776370        1.6797191563       -3.8702132187
 C          7.4822785656        0.1243556730       -2.8487513089
 C          7.1676037622       -0.7421556944       -4.0639419168
 C          5.5479547864       -4.2187427320        3.4319543613
 C          3.3287002914       -5.7944038509        2.3472951170
 C         -1.8494689757        2.7588205617        6.1510361540
 C         -3.5221225279        2.9289514990        3.7480153427
 C         -4.7802773471        1.8354337213       -1.4690670798
 C         -4.2452854801        0.8326818647       -4.1723845903
 C          6.2711129774        0.9673915223       -2.4681347626
 C          5.9628487869       -1.6326244122       -3.7825943739
 C          2.2837284581        0.7209938197        3.9912798032
 C         -0.2524974751       -1.5690633188        0.5219297425
 C          1.2618580978        1.3101666541        0.4994976240
 C          0.0500069838       -1.6810938249       -3.1465194278
 C          4.3337238048        0.5652587930        2.7363397340
 C         -0.6700643833       -2.8451868359        2.5197876500
 C          3.1580784397        2.6710483232        2.8798864726
 C         -2.4026656937       -1.4324984020        1.5984300821
 C         -0.2419510683        3.0909896965       -0.1065922237
 C         -0.8597914751       -3.6146013259       -2.0350648001
 C          1.6501372839        2.5656843622       -1.5174327040
 C          1.5266001129       -3.4111629324       -2.3542753709
 C          3.3952358568       -1.4700765806        3.7937175712
 C          1.5441485362       -3.0014826664        1.4175860309
 C          0.9741689852        2.8209453643        4.0104808533
 C         -1.9767552424       -0.1208295945       -0.4632175372
 C         -0.6430619327        1.8027387829        1.9740845960
 C         -2.3764034126       -1.7800372198       -2.6747405192
 C          3.2133696998        0.7446067210       -0.8974973091
 C          2.4812743609       -1.3823432037       -3.4112660564
 C          3.3480327807       -0.0394861091        3.5209410225
 C          0.1900203638       -2.4692194258        1.4863764516
 C          2.1706712004        2.0705525017        3.6598987673
 C         -1.5424218432       -1.0462688833        0.5713446980
 C          0.1276759231        2.0716028915        0.7699858599
 C         -1.0516495264       -2.3821928645       -2.6581312116
 C          2.0305071254        1.5529830614       -0.6349329007
 C          1.3379343653       -2.1778044968       -2.9836528305
 C          4.2261682045        1.9088965420        2.4408188337
 C         -1.9470302045       -2.3189298772        2.5568875000
 C          0.5212795828        3.3118258353       -1.2382184200
 C          0.4254717491       -4.1099489361       -1.9030968083
 C          4.1301243429       -3.6495029585        3.3972233270
 C          3.3388577418       -4.2698278474        2.2172405494
 C         -1.2151403617        2.9737203135        4.7792991164
 C         -2.1221264849        2.3273170508        3.6804984479
 C         -3.5349218547        1.0037419007       -1.7575424322
 C         -3.8146088729        0.0283836116       -2.9484295556
 C          5.0584686813        0.0825374859       -2.1717455970
 C          4.7395693399       -0.7969938461       -3.4078950973
 Br         5.5680377368        2.7360054405        1.3610106276
 Br        -3.1188721136       -2.8241263880        3.9791685801
 Br        -0.0084137261        4.6857907511       -2.4553817142
 Br         0.6816102168       -5.7927620574       -1.0350042368
 N          4.1872167049       -2.2362506452        3.1772632285
 N          1.9973869797       -3.7863917728        2.2944494582
 N          0.0391875837        2.3060528110        4.6909072163
 N         -3.1878666595        0.2069185493       -0.6244848857
 N         -1.5203078111        2.6003728147        2.4147840242
 N         -2.5840763914       -0.6443523020       -3.1935902544
 N          3.9225807972        0.9127752328       -1.9266986923
 N          3.6581099367       -1.6641274574       -3.0507991914
 H          5.0543340206       -6.0248012375        4.4904785784
 H          6.5489305398       -6.1173782262        3.5534468592
 H          4.7090097361       -7.4334324796        2.4878109658
 H          5.2539703482       -6.1161333769        1.4454533143
 H         -3.1991740165        4.4299358951        6.0476789595
 H         -3.6846504102        3.1730980544        7.1901194099
 H         -4.2442217200        1.6548668917        5.3222718020
 H         -5.1307874350        3.1733592308        5.1536931449
 H         -4.4084597277        3.3207722336       -2.9779656840
 H         -6.0975560383        3.2054014500       -2.4746907141
 H         -5.7462610611        2.2531880730       -4.7583128934
 H         -6.3158980161        1.0259928810       -3.6218269488
 H          8.3256157763        0.7819812145       -3.0650157754
 H          7.7599299932       -0.5137909205       -2.0069856494
 H          8.0287799319       -1.3639971444       -4.3142219914
 H          6.9532439855       -0.1015121806       -4.9222194305
 H          6.0794845013       -3.7794166023        4.2786596286
 H          6.0625974347       -3.9168529839        2.5181283747
 H          2.7762551427       -6.2129231199        1.5038640790
 H          2.7952786011       -6.0571551906        3.2621200549
 H         -1.8820611565        1.6868353878        6.3523433661
 H         -1.2119379379        3.2245823272        6.9053372567
 H         -3.4534862380        3.9929483957        3.5158426807
 H         -4.1393810622        2.4553645538        2.9824838962
 H         -5.5805207682        1.1646056149       -1.1525136347
 H         -4.5603408824        2.5125655691       -0.6418754500
 H         -3.4130028423        1.4701118384       -4.4751730345
 H         -4.4524626696        0.1378386190       -4.9888674373
 H          6.0104908523        1.6450641086       -3.2825438070
 H          6.4871887905        1.5709113043       -1.5845385898
 H          6.1807762558       -2.3133945836       -2.9579607326
 H          5.7189826747       -2.2342600654       -4.6606163872
 H          1.5075593581        0.2754338504        4.5940063921
 H          0.4081271407       -1.2758559157       -0.2816616956
 H          1.5513488520        0.5273776834        1.1862052484
 H         -0.1207268812       -0.7284791506       -3.6235901550
 H          5.1553666728       -0.0328382936        2.3761804602
 H         -0.3178042039       -3.5414514618        3.2636695968
 H          3.0833143206        3.7146156547        2.6134749520
 H         -3.4011724730       -1.0267628418        1.6252672213
 H         -1.1180466219        3.6790787370        0.1143753440
 H         -1.7027890989       -4.1688567466       -1.6506814451
 H          2.2492512348        2.7442083919       -2.3957413691
 H          2.5293507055       -3.7880100038       -2.2317077048
 H          2.6759114033       -1.8390964660        4.5378037665
 H          2.1403242177       -2.6717816258        0.5518534374
 H          0.9090679069        3.8399120222        3.6013657297
 H         -1.1740497112        0.2699959141       -1.1059145447
 H         -0.4028365269        0.8565263360        2.4810414919
 H         -3.1678481980       -2.3436651474       -2.1593082356
 H          3.4433276116       -0.0196594086       -0.1380139831
 H          2.2483024396       -0.5068199027       -4.0329152301
 H          3.5867931391       -3.8968929773        4.3249733715
 H          3.8320609598       -3.9653803607        1.2770335725
 H         -1.1321935146        4.0498509441        4.5475683508
 H         -2.1491988787        1.2457759798        3.8919103439
 H         -2.6972111357        1.6487035217       -2.0699538348
 H         -4.6131100855       -0.6635658378       -2.6289145679
 H          5.2683377487       -0.5881413588       -1.3197179442
 H          4.4629414395       -0.1182642942       -4.2324601470
 C         -9.4702256961        3.5211664433       -6.4945355934
 C        -10.0953303660        3.3360829458       -5.1102181901
 O        -10.4694558466        3.4963246795       -7.5002526538
 C        -11.4481631736        4.4929234047       -7.2576526214
 C        -12.0737873365        4.3060053434       -5.8738698312
 O        -11.0750960070        4.3318897101       -4.8680484819
 H         -8.7864670793        2.7046390214       -6.7263763583
 H        -10.5593253229        2.3411455920       -5.0462803525
 H        -10.9832663597        5.4875298210       -7.3199205431
 H        -12.6066369939        3.3446398049       -5.8381033525
 H         -9.3468676843        3.4488625670       -4.3260457636
 H        -12.1967794083        4.3827274261       -8.0423754599
 H        -12.7606546060        5.1203892264       -5.6432369551
 H         -8.9353523565        4.4812470463       -6.5312979655