142
-211.12731399
 C         -0.9995643860       -4.1450552044       -5.0374990689
 C         -1.6813079946       -5.2281056201       -4.2077343809
 C          1.4625117963        7.5807639592        2.8826493937
 C          2.3158570752        8.1741639880        1.7663500478
 C         -5.7961512183        2.7671623754        5.0002377892
 C         -5.1961456492        3.9167727103        4.1972459074
 C          6.8977721264       -3.6530109723       -0.3571504534
 C          6.0268612174       -4.3170680864        0.7044305294
 C         -1.3791052908       -2.7625110280       -4.5208838547
 C         -1.3050713600       -5.0857045319       -2.7375491012
 C          0.3731000268        6.6866127568        2.3014639114
 C          2.9320171422        7.0658952747        0.9201423257
 C         -5.3320096646        1.4273372612        4.4404253082
 C         -3.6738718456        3.8348888062        4.2062665287
 C          6.0602138615       -2.7159691299       -1.2197089540
 C          5.3451140955       -3.2628382705        1.5681326886
 C         -0.3196117770        1.5262278948       -0.6898757415
 C         -2.1839915187       -1.8414068513        2.1685616000
 C          3.2355382613        2.5190820977       -1.3057225337
 C          0.8218564827        0.3737413035        2.2409344544
 C         -2.4931131971        1.1408979494       -1.6503833266
 C         -0.3233574725       -3.3325650675        1.8295947548
 C         -2.0536807197        3.1760365873       -0.4213068231
 C         -0.5511600874       -2.1330576833        3.9149991912
 C          1.6126471479        2.7987459708       -3.0633333693
 C          1.0735837339        2.1039340510        3.8974043428
 C          2.8242752472        0.7185865332       -2.8513618412
 C          2.9851672700        0.7927044851        3.2102011946
 C         -0.7149501483       -0.5595637113       -1.9456586969
 C         -1.9534598531       -2.9777272612       -0.0049539199
 C          0.1839706472        3.5785321020        0.5682760318
 C         -2.3480111298       -0.4736960908        4.2233082108
 C          1.8874366576        4.5908467039       -1.3923279799
 C         -1.1576410558        1.6733150337        2.9047805027
 C          4.4357649773        0.3908790722       -0.9949680662
 C          2.7376555668       -1.0020935029        1.5194996921
 C         -1.1814245675        0.7187146535       -1.4259614957
 C         -1.4903471804       -2.7286189671        1.3538388001
 C         -0.7467257013        2.7516989344       -0.1843355749
 C         -1.7123132101       -1.5237246255        3.4414020137
 C          2.2806091881        3.3049549048       -1.9491429742
 C          0.2647465037        1.3886449682        3.0151507880
 C          3.5007980973        1.2251295394       -1.7384327426
 C          2.1756283573        0.0655759923        2.3355139799
 C         -2.9038725273        2.3585341936       -1.1428859817
 C          0.1167358035       -3.0325384107        3.1027788865
 C          1.9034034352        1.5175977688       -3.4982050096
 C          2.4199502876        1.7978078292        3.9712277976
 C         -1.0000822203       -2.6021593103       -3.0472362726
 C         -1.6905368455       -3.7062392761       -2.2052879787
 C          0.9773158117        5.5645376680        1.4633971448
 C          1.8528525031        6.1704293298        0.3168245416
 C         -3.8092216406        1.3220930399        4.4585115830
 C         -3.1949660938        2.5034884540        3.6365806237
 C          5.3772127901       -1.6484286746       -0.3660146198
 C          4.4925660567       -2.3212139569        0.7152849173
 Br        -4.7043407657        2.9278119380       -1.4358810022
 Br         1.7149136908       -3.8530271695        3.7540774099
 Br         0.9722437219        0.8249049999       -5.0167485723
 Br         3.5322496360        2.8046931607        5.1545526129
 N         -1.4768112766       -1.3403112526       -2.5784797046
 N         -1.2323435415       -3.5692807752       -0.8560983761
 N         -0.0522277740        4.7892011527        0.8490140294
 N         -3.3780789945        0.1325349413        3.8065219027
 N          2.4368076067        5.0580214203       -0.3520374837
 N         -1.7747186007        2.3984130798        3.7376852434
 N          4.5177828036       -0.8539126205       -1.1902217269
 N          3.9656883884       -1.2878354267        1.5481868709
 H          0.0841349780       -4.2690684143       -4.9819189751
 H         -1.2958989075       -4.2323223605       -6.0839439345
 H         -1.3855545462       -6.2160760047       -4.5641668725
 H         -2.7644068872       -5.1395264521       -4.3152268139
 H          2.0954797226        6.9932839678        3.5515644315
 H          1.0038569109        8.3795386534        3.4675890213
 H          1.6954051902        8.8125031871        1.1331161181
 H          3.1103477843        8.7900982863        2.1906100840
 H         -5.4868400332        2.8513719833        6.0445771891
 H         -6.8856632798        2.8161993514        4.9661974398
 H         -5.5113715203        4.8722349735        4.6194725592
 H         -5.5559373984        3.8678706008        3.1670170626
 H          7.3618652341       -4.4116103205       -0.9896565196
 H          7.6945219329       -3.0851919139        0.1284936526
 H          6.6352601547       -4.9640740962        1.3382137257
 H          5.2685131734       -4.9362008598        0.2202808838
 H         -0.8721654524       -1.9859709198       -5.0968603416
 H         -2.4544336002       -2.6050710478       -4.6173565886
 H         -1.8116297484       -5.8449361894       -2.1381307455
 H         -0.2294473173       -5.2166302551       -2.6080660108
 H         -0.2991321937        7.2681435115        1.6685191989
 H         -0.2188105749        6.2394598433        3.1019794406
 H          3.5921289435        6.4469472842        1.5300192209
 H          3.5241312302        7.4914003195        0.1072885330
 H         -5.6735639959        1.3087393474        3.4108401460
 H         -5.7435892156        0.6050582705        5.0293464762
 H         -3.2934774464        3.9327523212        5.2243129862
 H         -3.2465087814        4.6405207068        3.6066891002
 H          5.2894769946       -3.2782638190       -1.7495538445
 H          6.6865239188       -2.2194421497       -1.9637230156
 H          6.0905487167       -2.6662961126        2.0962687912
 H          4.7022941047       -3.7353778129        2.3132800666
 H          0.6973955640        1.2056001286       -0.5133818634
 H         -3.0835462717       -1.3573218908        1.8211781674
 H          3.7395475737        2.9299302646       -0.4446977905
 H          0.1896002508       -0.1854372131        1.5658267880
 H         -3.1545032849        0.5071949483       -2.2188719248
 H          0.2087083054       -4.0186743476        1.1902475951
 H         -2.3732350411        4.1286819146       -0.0305813100
 H         -0.1729345872       -1.8967709679        4.8982048401
 H          0.8699995306        3.3948953295       -3.5719052360
 H          0.6320793701        2.8836050815        4.4969505407
 H          3.0350340790       -0.2868220128       -3.1789672329
 H          4.0334854595        0.5494803146        3.2739571645
 H          0.3431578522       -0.7947421302       -1.7490375907
 H         -2.9528126517       -2.5899284079       -0.2464570491
 H          1.1149273823        3.0774053505        0.8715844743
 H         -1.8487940253       -0.2047709774        5.1656894587
 H          1.0517536253        5.0994194994       -1.8948776826
 H         -1.6631920876        1.2053065668        2.0473113056
 H          5.0358153158        0.9092075882       -0.2342498958
 H          2.0190834119       -1.5406792235        0.8813881424
 H          0.0913998047       -2.7045656365       -2.9142487815
 H         -2.7793891846       -3.5474244927       -2.2843772220
 H          1.6479127665        4.9368811232        2.0731227312
 H          1.1814009890        6.7491636670       -0.3409925947
 H         -3.4202346700        1.3991600403        5.4886722992
 H         -3.5382282551        2.3753003303        2.5967921432
 H          6.1252098848       -1.0301409177        0.1586557284
 H          3.6927271379       -2.8821906879        0.2004205124
 C         -5.4274006021       -9.5232121431       -9.1815178378
 C         -4.8068772132       -8.1369535499       -9.3663680310
 O         -4.9623176643      -10.1216519099       -7.9832154681
 C         -5.2491314753       -9.2943896823       -6.8680733252
 C         -4.6283793406       -7.9083266879       -7.0528821111
 O         -5.0930496759       -7.3098038783       -8.2511479985
 H         -5.1345775922      -10.1925993893       -9.9904237499
 H         -3.7176929308       -8.2340744116       -9.4817828376
 H         -6.3384721357       -9.1971658818       -6.7535454540
 H         -3.5330772950       -7.9972789755       -7.0875789988
 H         -5.2294492037       -7.6336685443      -10.2360182010
 H         -4.8274295224       -9.7981007292       -5.9981688796
 H         -4.9230782408       -7.2395992522       -6.2444966418
 H         -6.5228537089       -9.4342703112       -9.1466363928