142
-211.12668387
 C          1.4143138371       -6.4669994469        3.3025637005
 C          0.3817161519       -6.5199488692        2.1812330643
 C         -1.1644694410        5.7408624301        6.4336083287
 C         -2.2443741270        5.7290515393        5.3565183298
 C         -3.4152827373        6.5715035777       -2.2687911800
 C         -4.1586086017        5.9455805779       -3.4445037037
 C          6.2083507907       -2.1101248861       -3.2054401944
 C          5.4429241578       -2.6069994314       -4.4275285053
 C          2.2471847920       -5.1946127071        3.1968986947
 C         -0.5152051857       -5.2888253854        2.2259413378
 C         -0.2790724388        4.5055475717        6.3143061503
 C         -1.6128239140        5.6578853409        3.9708500916
 C         -3.4147967176        5.6248726976       -1.0738681836
 C         -3.5282885087        4.6101645466       -3.8231681950
 C          5.6345444786       -0.7835580941       -2.7226354021
 C          3.9612983979       -2.7539143179       -4.1010789918
 C          2.1389999400        0.7049434138        3.9778036679
 C         -1.2905210327        0.2816191815        0.6542685210
 C          1.5993067999        1.9593239071        0.4969285812
 C         -1.0867869109        0.2209295637       -3.0769912355
 C          3.7648069762       -0.4664645618        2.6417679251
 C         -2.2823091886       -0.6557448529        2.6375964037
 C          3.8954752933        1.9347581138        2.8809103469
 C         -3.0115925838        1.4990636825        1.8188143269
 C          1.2894385568        4.3060227315        0.0516136381
 C         -2.8260504224       -1.0378958080       -1.9849879634
 C          2.6110681542        2.9488410767       -1.4505520309
 C         -0.6843434152       -2.0640936375       -2.4311693030
 C          1.9115484552       -1.7314325001        3.6984033826
 C         -0.5278898685       -1.9291857307        1.4364393163
 C          2.1466309379        3.1757503803        4.0969641536
 C         -2.0002760279        2.4654340123       -0.2280913819
 C          0.2503747692        3.2937093755        2.0620670155
 C         -3.2093195987        1.3454676986       -2.4839618112
 C          2.9496931026        0.5362511010       -0.9983691469
 C          1.1402054153       -0.7544322783       -3.4804710937
 C          2.6255805835       -0.4857311628        3.4508756037
 C         -1.3787537107       -0.7556174175        1.5780045758
 C          2.7550089952        1.9202172351        3.6828098097
 C         -2.1008131813        1.4086156877        0.7668707079
 C          1.0494302464        3.1889742741        0.8510094261
 C         -2.3770155502        0.1535778638       -2.5529719912
 C          2.3826245803        1.8308594322       -0.6461240597
 C         -0.2324462623       -0.8732180767       -3.0062354966
 C          4.3835552543        0.7396756652        2.3824863920
 C         -3.0780310783        0.4692055328        2.7390029401
 C          2.0596590275        4.1625602916       -1.0876171904
 C         -1.9736578850       -2.1271527214       -1.9430648320
 C          1.3591124004       -3.9522857915        3.2495164629
 C          0.3088551339       -4.0050022885        2.1099285824
 C          0.3736406407        4.4273681148        4.9365151766
 C         -0.7369091111        4.4167358549        3.8339156478
 C         -2.7752166410        4.2882069338       -1.4357529237
 C         -3.5363023352        3.6440702322       -2.6412320776
 C          4.1491035194       -0.9180196732       -2.3818870870
 C          3.3699408369       -1.4289517646       -3.6215142529
 Br         5.9378656064        0.7699974845        1.2711742392
 Br        -4.2995756344        0.6147704350        4.2011450386
 Br         2.3571354718        5.6881669949       -2.1994122653
 Br        -2.5925922380       -3.7530733847       -1.1525960232
 N          2.1577818559       -2.7822371619        3.0429038989
 N         -0.5571837484       -2.8800792426        2.2644591907
 N          1.0830660570        3.2031241084        4.7829453846
 N         -2.8688735747        3.3780619045       -0.3397335570
 N         -0.0796118031        4.4059071216        2.5667516582
 N         -2.8229744253        2.4535455532       -2.9581419448
 N          3.6306769397        0.3696159689       -2.0467127234
 N          2.0109516226       -1.6310321610       -3.2201693527
 H          0.9043844989       -6.4885194585        4.2682900638
 H          2.0711304216       -7.3368445183        3.2487854325
 H         -0.2319819194       -7.4168620077        2.2780776310
 H          0.8915256478       -6.5631495055        1.2163054317
 H         -0.5518155479        6.6388791431        6.3256950695
 H         -1.6238575767        5.7629230258        7.4230976164
 H         -2.8955059365        4.8643577800        5.5033632638
 H         -2.8568475751        6.6289477387        5.4314050906
 H         -2.3851073739        6.7861959018       -2.5618369557
 H         -3.8886233557        7.5131088329       -1.9862091090
 H         -4.1298697024        6.6164788433       -4.3045736111
 H         -5.2051975114        5.7893248361       -3.1730402212
 H          7.2632904884       -1.9787049705       -3.4510081078
 H          6.1383070642       -2.8495773214       -2.4047218346
 H          5.8403679009       -3.5698136648       -4.7530624419
 H          5.5659248421       -1.8964435069       -5.2479146748
 H          2.9697302185       -5.1420751524        4.0139066822
 H          2.8007920762       -5.1826508511        2.2564890042
 H         -1.2391459572       -5.3127137416        1.4091958182
 H         -1.0686114822       -5.2573447413        3.1657366158
 H         -0.8693844735        3.6007183489        6.4678677235
 H          0.5084738129        4.5270589422        7.0704017455
 H         -0.9957638147        6.5391311141        3.7881460211
 H         -2.3862159932        5.6216483912        3.2016325090
 H         -4.4353508815        5.4394111551       -0.7350260700
 H         -2.8566779046        6.0610354411       -0.2434708454
 H         -2.4950622160        4.7561875798       -4.1423554552
 H         -4.0751954199        4.1516518858       -4.6496234913
 H          5.7409639100       -0.0213599836       -3.4960576676
 H          6.1651922405       -0.4375586210       -1.8335472633
 H          3.8199217393       -3.4980870426       -3.3154621010
 H          3.4069668365       -3.0844597110       -4.9818984192
 H          1.2570842963        0.7165436029        4.5993294712
 H         -0.5931270392        0.2103050735       -0.1683740714
 H          1.4206906032        1.0981883370        1.1252892588
 H         -0.7591843300        1.1528621325       -3.5110258957
 H          4.1345371136       -1.3945852643        2.2361484872
 H         -2.3407564503       -1.4620575082        3.3508004788
 H          4.3833060995        2.8679794539        2.6427740393
 H         -3.6387392106        2.3727263253        1.8938861325
 H          0.8635120216        5.2544555899        0.3370207092
 H         -3.8222608695       -1.1053215806       -1.5743565620
 H          3.2171794659        2.8391857981       -2.3353221856
 H         -0.0140760264       -2.9071423305       -2.3799848363
 H          1.1253089746       -1.6854084577        4.4646596737
 H          0.1362738315       -1.9305434378        0.5574260611
 H          2.6344591637        4.0915449539        3.7322785434
 H         -1.1190594085        2.4097730479       -0.8839922406
 H         -0.0410011854        2.3347691067        2.5150481137
 H         -4.1649223252        1.2357403781       -1.9505802098
 H          2.7455161798       -0.2810718247       -0.2885079279
 H          1.3718184604        0.1574202178       -4.0481371094
 H          0.8076120450       -3.9062025943        4.2038414642
 H          0.8495747972       -3.9776396418        1.1474007631
 H          1.0134226073        5.3077740273        4.7518827903
 H         -1.3280843259        3.4997224415        3.9917693578
 H         -1.7309226633        4.4274631167       -1.7605584539
 H         -4.5680800669        3.4369387320       -2.3079021348
 H          4.0032754218       -1.6458521183       -1.5642443052
 H          3.4541902840       -0.6566358391       -4.4047366924
 C         -4.7189603953       -9.4967140888       -6.1737030257
 C         -4.0509728825       -9.5740698495       -7.5481568483
 O         -5.5236422244      -10.6417521908       -5.9462683794
 C         -4.7510293456      -11.8252410328       -6.0584383757
 C         -4.0833356217      -11.9030486808       -7.4329195313
 O         -3.2790543276      -10.7577327979       -7.6618294336
 H         -5.3868945804       -8.6374009369       -6.1124396926
 H         -4.8214770009       -9.5611630759       -8.3327366148
 H         -3.9805769084      -11.8367683860       -5.2739217397
 H         -4.8549228538      -11.9719153565       -8.2133829036
 H         -3.3593572218       -8.7438813427       -7.6925408672
 H         -5.4422748131      -12.6555583353       -5.9132065214
 H         -3.4148334754      -12.7619043956       -7.4939631365
 H         -3.9479484556       -9.4280243190       -5.3927351198