142
-211.12931324
 C          3.5794711060       -6.8048771073        2.4010102609
 C          3.2381464928       -6.9989118262        0.9271067589
 C         -5.0917442659        2.5202853609        4.2032051199
 C         -5.4984443379        2.3455870489        2.7435630636
 C         -3.5718997076        4.3945281709       -4.4951352280
 C         -3.4325926606        3.8129283999       -5.8983173135
 C          8.1710787389        0.1432339474       -1.0203007901
 C          8.2732890676       -0.3399953986       -2.4633768356
 C          3.7356419541       -5.3221360000        2.7184187454
 C          1.9659006168       -6.2391771078        0.5712484693
 C         -3.7979553955        1.7664077306        4.4886428969
 C         -4.3854029386        2.8231548993        1.8174704201
 C         -3.6719982741        3.2772284928       -3.4627576819
 C         -2.2130136521        2.9017709260       -5.9791614769
 C          6.9536720234        1.0431504228       -0.8463158598
 C          7.0016920269       -1.0773976314       -2.8668936054
 C          0.7614538385       -0.2284159849        3.4898056443
 C         -0.4183069124       -1.1744749346       -1.0876326194
 C          1.2155678280        1.4043708313        0.1838898959
 C          1.2702399928       -0.3923672266       -4.2953649205
 C          3.1218672014       -0.3757283138        3.0343516495
 C         -1.6290163854       -2.8073997611        0.2017150833
 C          2.0821922091        1.7813493767        3.3597436519
 C         -2.8010398507       -0.9537081265       -0.8170019758
 C          0.1597203059        3.5083343863       -0.3246331405
 C         -0.0778637785       -2.3839819913       -4.1627598573
 C          2.4187214055        3.0712636872       -1.0683387973
 C          2.2650908042       -2.4648971933       -3.5772327746
 C          1.7549469357       -2.4444370094        3.0806995586
 C          0.8220483526       -3.0520763562       -0.0817627436
 C         -0.3585549820        1.9713020789        3.6494522646
 C         -1.5565266293        0.7298099776       -2.1470285941
 C         -1.0829624982        1.7912245668        0.9638118397
 C         -1.1605140200       -0.2443907202       -4.7324098971
 C          3.5204142020        0.9141106239       -0.5413678694
 C          3.6415072731       -0.4033095301       -3.6262573091
 C          1.8859658975       -1.0003160026        3.2221950396
 C         -0.4245676945       -2.3401268296       -0.3274312066
 C          0.8462068327        1.1621464229        3.5407568170
 C         -1.5978362654       -0.4769817143       -1.3357916838
 C          0.1067789029        2.2436621870        0.2601873395
 C          0.0335467987       -1.0209258925       -4.4339452060
 C          2.3736109286        1.8093979618       -0.4727580315
 C          2.3820749565       -1.0999999120       -3.8534852065
 C          3.1981549988        0.9997156067        3.1179067116
 C         -2.7915005277       -2.1044764238       -0.0505230550
 C          1.3122138795        3.8944209792       -0.9838914754
 C          1.0425485498       -3.0820351740       -3.7479281871
 C          2.4622783996       -4.5511426981        2.3733974921
 C          2.1154222934       -4.7471112776        0.8750563893
 C         -2.6682582153        2.2448801264        3.5799020260
 C         -3.0922448123        2.0604978801        2.0850179027
 C         -2.4507466234        2.3655788450       -3.5247636120
 C         -2.3075965376        1.7665496668       -4.9630140950
 C          5.6688109841        0.3105466401       -1.2379784967
 C          5.7734113541       -0.1828448062       -2.7040428195
 Br         4.8852791603        1.8570961908        2.8536597239
 Br        -4.4361069884       -2.7316174249        0.6917335601
 Br         1.3690858148        5.6149799035       -1.8129549451
 Br         0.8782258949       -4.9467829375       -3.3647822243
 N          2.6766209944       -3.1516862102        2.5860343910
 N          0.8700346586       -4.0926383639        0.6292247226
 N         -1.5045944518        1.4438474522        3.7530160515
 N         -2.5975761334        1.2707448957       -2.6199450062
 N         -2.0333121820        2.5672149655        1.2722136672
 N         -1.1068347694        1.0020898094       -4.9459317411
 N          4.5723498808        1.2226767945       -1.1647874017
 N          4.5913696113       -0.9382380699       -2.9891676043
 H          2.7827080221       -7.2265705114        3.0177862107
 H          4.5060204572       -7.3280291738        2.6433579653
 H          3.0975901639       -8.0590513951        0.7107693706
 H          4.0629228536       -6.6356618999        0.3101004126
 H         -4.9460530973        3.5821793533        4.4151428305
 H         -5.8791324549        2.1476355800        4.8596533185
 H         -5.7043379773        1.2910696413        2.5470112722
 H         -6.4085209324        2.9116780064        2.5391487335
 H         -2.7033058205        5.0180712431       -4.2716341117
 H         -4.4619012833        5.0231834974       -4.4378684381
 H         -3.3323351691        4.6179416982       -6.6280507980
 H         -4.3299140248        3.2416182261       -6.1469866865
 H          9.0705221236        0.6960830805       -0.7449552511
 H          8.0861792239       -0.7165083263       -0.3520829562
 H          9.1305977565       -1.0057688414       -2.5760668252
 H          8.4221438678        0.5166162801       -3.1245204588
 H          3.9537056733       -5.1791866226        3.7787738095
 H          4.5613817312       -4.8978772712        2.1447163548
 H          1.7329519684       -6.3575194779       -0.4886862907
 H          1.1219579003       -6.6234829783        1.1461649645
 H         -3.9406182509        0.6967093626        4.3278780896
 H         -3.4951812489        1.9128704770        5.5272846163
 H         -4.1972365360        3.8877458612        1.9655158159
 H         -4.6663207602        2.6716194950        0.7736307995
 H         -4.5638095558        2.6739116383       -3.6399207323
 H         -3.7404759185        3.6945104236       -2.4565719870
 H         -1.3027342838        3.4692016730       -5.7787573643
 H         -2.1272147236        2.4677290869       -6.9774709404
 H          7.0466229915        1.9311150423       -1.4734871920
 H          6.8649233045        1.3716825337        0.1909633022
 H          6.8662788873       -1.9644185514       -2.2457273125
 H          7.0618145638       -1.4011671698       -3.9080201104
 H         -0.2050325570       -0.6867522519        3.6312390653
 H          0.5111238300       -0.8073566155       -1.4993646605
 H          1.1750116874        0.4293335366        0.6485360536
 H          1.3340038074        0.6633927608       -4.5087563837
 H          3.9886381695       -0.9821624791        2.8257423175
 H         -1.6241424847       -3.7088002927        0.7930749397
 H          2.1639162637        2.8572895469        3.3955360439
 H         -3.7098636168       -0.4101122074       -1.0188908971
 H         -0.7013985138        4.1533193076       -0.2552634562
 H         -1.0289937091       -2.8845854893       -4.2643770311
 H          3.3189423429        3.3757453983       -1.5773752321
 H          3.1326589391       -3.0055489960       -3.2343065527
 H          0.7925716026       -2.8687639925        3.3987586845
 H          1.7160207531       -2.6203034780       -0.5594872936
 H         -0.2168582630        3.0595905692        3.5769226044
 H         -0.5506594598        1.1364241901       -2.3283535646
 H         -1.0963226869        0.7206953186        1.2163384105
 H         -2.1122827050       -0.7949878447       -4.7050700001
 H          3.4052405142       -0.0455006983       -0.0126099144
 H          3.6954749535        0.6234409895       -4.0138938849
 H          1.6072764223       -4.9262745410        2.9610358588
 H          2.9337838495       -4.3103994211        0.2756479415
 H         -2.4635075532        3.3184017837        3.7353776515
 H         -3.2365781425        0.9784286569        1.9312878097
 H         -1.5267695428        2.9335910657       -3.3272866942
 H         -3.1981617784        1.1419107941       -5.1508712070
 H          5.5134736243       -0.5713817628       -0.5916564884
 H          5.8521177352        0.7099458704       -3.3473365023
 C         -8.2824643145       -0.0287214247        5.7380145275
 C         -9.4537457525        0.0528999746        4.7574342778
 O         -7.7716676772        1.2654997108        6.0136996028
 C         -8.7915474151        2.1090914971        6.5222090174
 C         -9.9609088943        2.1899662950        5.5391635246
 O        -10.4732681363        0.8964036842        5.2675967205
 H         -7.4573708328       -0.5994681791        5.3122473545
 H         -9.1009639645        0.4452308815        3.7930497026
 H         -9.1470466686        1.7158105807        7.4853352243
 H         -9.6222986369        2.6552955414        4.6022137196
 H         -9.9104534189       -0.9264630870        4.6148703398
 H         -8.3347090509        3.0882977696        6.6664270393
 H        -10.7863895461        2.7627671407        5.9618743482
 H         -8.6181658020       -0.4968904940        6.6743372242