142
-211.12745096
 C          2.6013402788       -6.4678323834        3.9094959252
 C          1.3615376482       -6.8267373151        3.0968479477
 C         -1.2675157033        5.5142841109        6.5208242038
 C         -2.5544573571        5.2208510448        5.7567413994
 C         -5.5957221884        4.9780425182       -1.2116017111
 C         -6.4678135810        4.1234878710       -2.1255752465
 C          4.9174132734       -2.0304014242       -4.1545609147
 C          3.9782867316       -2.7722599887       -5.0999542043
 C          3.1384769612       -5.1065755651        3.4830245645
 C          0.2904114880       -5.7554147754        3.2610125861
 C         -0.2402875498        4.4156095848        6.2733631012
 C         -2.2688324012        5.0875352508        4.2652335193
 C         -5.1486767791        4.1723838681        0.0028769620
 C         -5.7120139651        2.8752726766       -2.5662712883
 C          4.2427632251       -0.7744827600       -3.6165285897
 C          2.6832300691       -3.1335934604       -4.3820955625
 C          2.1613339917        0.7598294128        3.7231163532
 C         -1.7931603292       -0.5728841828        1.5099488060
 C          0.6377974288        1.5870912985        0.3464884734
 C         -2.4122116912       -0.9499456897       -2.2186554573
 C          3.6073095957       -0.3246186298        2.1317902819
 C         -2.1470791891       -1.4478336478        3.7246951869
 C          3.3790326310        2.0814752042        2.1194592157
 C         -3.4016859629        0.4740324563        2.9651767642
 C         -0.1865175713        3.7944006392       -0.1536673568
 C         -3.5618465142       -2.3640387056       -0.6438456066
 C          0.9743695229        2.5188530204       -1.8476036353
 C         -1.4411734501       -3.0570653234       -1.5731309932
 C          2.3024314998       -1.6994093725        3.7316650744
 C         -0.5061479675       -2.5499193266        2.2310362725
 C          1.7803240963        3.2017478445        3.6264920647
 C         -3.0510884369        1.3729305084        0.6816311575
 C         -0.5272392233        2.8456335154        2.1110021432
 C         -4.4977253832       -0.1419558168       -1.1623089178
 C          1.8463892009        0.2558134102       -1.3435604385
 C         -0.2155347762       -1.5771245834       -3.1409612271
 C          2.7086513594       -0.4053966134        3.1989286694
 C         -1.4952073216       -1.5130778678        2.4917635586
 C          2.4759063719        2.0040999320        3.1788543182
 C         -2.7431424415        0.4199360752        1.7373137593
 C         -0.0272449409        2.7430586252        0.7484013290
 C         -3.4979675194       -1.1783680085       -1.3745098030
 C          1.1468185714        1.4691483451       -0.9433400010
 C         -1.3774027640       -1.8730955228       -2.3130053624
 C          3.9334731359        0.9155642328        1.6211607114
 C         -3.0837051522       -0.4550543425        3.9385978819
 C          0.3092822079        3.6580747686       -1.4371534363
 C         -2.5352508116       -3.2844671272       -0.7630971304
 C          2.0771494109       -4.0200333351        3.6500189794
 C          0.8128643241       -4.3843164558        2.8284576134
 C          0.0712382797        4.2781151144        4.7852120386
 C         -1.2493716377        3.9845462620        3.9987222325
 C         -4.3831897587        2.9221354030       -0.4188496256
 C         -5.2709512289        2.0456658882       -1.3630221379
 C          2.9412463459       -1.1159335789       -2.8887137646
 C          1.9885895254       -1.8843180187       -3.8420350895
 Br         5.1604707972        1.0289170314        0.1602269682
 Br        -3.9615678657       -0.3541707718        5.6330484019
 Br         0.0573713822        5.0867986184       -2.6811771817
 Br        -2.6241557788       -4.9017571692        0.2515872889
 N          2.5787663873       -2.7801791260        3.1399532752
 N         -0.1822378971       -3.3986156083        3.1059764034
 N          0.9170294029        3.1577436964        4.5511655358
 N         -4.0673583435        2.1249098028        0.7225210012
 N         -0.9146198460        3.9408900558        2.6117319584
 N         -4.4437071945        0.9636641953       -1.7760089713
 N          2.2876362100        0.0970802545       -2.5143215039
 N          0.8392485170       -2.2687501475       -3.0805249034
 H          2.3458757169       -6.4416429747        4.9711705324
 H          3.3748570594       -7.2244195632        3.7674876879
 H          0.9632608267       -7.7882560923        3.4244005935
 H          1.6286221609       -6.9146185219        2.0415245122
 H         -0.8597695819        6.4736122583        6.1939690623
 H         -1.4746146628        5.5824291086        7.5899654758
 H         -2.9936255824        4.2916637752        6.1268154135
 H         -3.2764810377        6.0228172281        5.9181979028
 H         -4.7174577399        5.3211405984       -1.7630709696
 H         -6.1504686242        5.8572278391       -0.8801760976
 H         -6.7628181736        4.6978604952       -3.0051595306
 H         -7.3757753509        3.8299654069       -1.5937267513
 H          5.8336491437       -1.7517064190       -4.6772482701
 H          5.1893925161       -2.6824780994       -3.3218183685
 H          4.4560850985       -3.6814437972       -5.4683878097
 H          3.7518468717       -2.1366068875       -5.9585918191
 H          4.0114092964       -4.8359603877        4.0805899466
 H          3.4424241935       -5.1321868379        2.4352348147
 H         -0.5881888989       -5.9972564854        2.6598388323
 H         -0.0222910712       -5.6894127792        4.3042398454
 H         -0.6162392372        3.4576739947        6.6364448597
 H          0.6888963832        4.6360390659        6.8028969830
 H         -1.8757250525        6.0247984823        3.8680828457
 H         -3.1852853174        4.8483269041        3.7229398025
 H         -6.0126925646        3.8650761974        0.5942833163
 H         -4.4993714028        4.7751338363        0.6403431024
 H         -4.8245376716        3.1523793391       -3.1375728136
 H         -6.3429935716        2.2525782396       -3.2038507635
 H          4.0083416506       -0.0913555544       -4.4343563523
 H          4.9025778899       -0.2533098303       -2.9202605220
 H          2.8893119230       -3.8020146396       -3.5445334687
 H          1.9994295139       -3.6460597609       -5.0618547891
 H          1.4598900827        0.7230175863        4.5421354681
 H         -1.2914826987       -0.6167792563        0.5535777350
 H          0.7671018547        0.7781368855        1.0515937648
 H         -2.3827813719       -0.0255493792       -2.7743615951
 H          4.0254251907       -1.2335701630        1.7297099229
 H         -1.9063808742       -2.1780349951        4.4803620913
 H          3.6327773256        3.0377431363        1.6873266656
 H         -4.1390594872        1.2431024478        3.1298669311
 H         -0.6984508512        4.6868965886        0.1684441425
 H         -4.3960689166       -2.5555258081        0.0141558456
 H          1.3687111591        2.4165514830       -2.8456873244
 H         -0.6328394534       -3.7664331423       -1.6510338638
 H          1.7180787089       -1.6688917895        4.6617511892
 H         -0.0662439701       -2.5446090736        1.2211950155
 H          2.0114831119        4.1279446170        3.0804100186
 H         -2.3438219866        1.3862389880       -0.1605017236
 H         -0.5369484078        1.9043072513        2.6796538786
 H         -5.2651734724       -0.3581125258       -0.4048093333
 H          1.9655036328       -0.5066652355       -0.5576648678
 H         -0.3089681491       -0.7000900186       -3.7963664181
 H          1.7692332742       -3.9326355678        4.7057015125
 H          1.0937446430       -4.3956912726        1.7606639986
 H          0.4943804781        5.2144049609        4.3817605596
 H         -1.6207025530        3.0106333295        4.3580776221
 H         -3.4798833457        3.1884376566       -0.9921428393
 H         -6.1423342650        1.7067741060       -0.7761753592
 H          3.1423619687       -1.7619914058       -2.0162075869
 H          1.7233575165       -1.1982580712       -4.6642247322
 C          4.3176937095       -3.3181000500       -9.8666788029
 C          4.0157278353       -1.9135168986      -10.3932543653
 O          4.4448899889       -4.2358032840      -10.9400152276
 C          5.4536595915       -3.8136907521      -11.8423651957
 C          5.1512672783       -2.4091475000      -12.3685767956
 O          5.0247588310       -1.4917022714      -11.2952693616
 H          3.5000795049       -3.6872128528       -9.2474558340
 H          3.0422959360       -1.9139350696      -10.9049631961
 H          6.4271959486       -3.8130863004      -11.3311202825
 H          4.2174058158       -2.4268359428      -12.9490154152
 H          4.0093418374       -1.1847013431       -9.5827909310
 H          5.4604503290       -4.5410708923      -12.6542175649
 H          5.9678940125       -2.0411883131      -12.9898253971
 H          5.2509764372       -3.3002916695       -9.2855475274