142
-211.12678388
 C          5.2006194895       -6.1821010283        3.1671867783
 C          4.9060492532       -6.6224104380        1.7368890107
 C         -5.3222740139        1.1711119686        4.2139697924
 C         -5.7081189146        0.7303193247        2.8057053863
 C         -4.4577695149        2.2022155576       -4.6233045213
 C         -4.1866307288        1.5227209795       -5.9616155944
 C          8.0552824532        1.3635828194       -1.2355996044
 C          8.2479534237        0.7591591272       -2.6226066511
 C          5.0155321691       -4.6755111737        3.3065910764
 C          3.4918387925       -6.2191458790        1.3375080347
 C         -3.8893759314        0.7561660385        4.5278886780
 C         -4.7465669578        1.3212555898        1.7808582429
 C         -4.2726031486        1.2141160953       -3.4772447214
 C         -2.7789496769        0.9381957565       -5.9861255235
 C          6.6597700014        1.9618131505       -1.1066421835
 C          7.1866314564       -0.3016684149       -2.8903609546
 C          0.9777364443       -0.3122953619        3.5673812881
 C         -0.0240519586       -2.0472991567       -0.7638222544
 C          1.0069844500        1.0515713102        0.0839552074
 C          1.4304514567       -1.1888794603       -4.1064350518
 C          3.3106726158        0.0061244103        3.0609890121
 C         -0.8013597550       -3.7889824850        0.7049331013
 C          1.8244257379        1.9081537246        3.1750201308
 C         -2.3890842532       -2.3811336220       -0.4539838373
 C         -0.5243336477        2.7795659332       -0.6016003728
 C          0.6231635807       -3.4234566010       -3.7104691444
 C          1.7676858504        2.8123475879       -1.3706836639
 C          2.9215649977       -2.8603940615       -3.2214581859
 C          2.4346080632       -2.2908279220        3.3848515053
 C          1.6346831293       -3.4677251134        0.3817579383
 C         -0.5961398546        1.5960639350        3.5219082441
 C         -1.5927618865       -0.5900031528       -1.9731961030
 C         -1.3103739667        0.9719793611        0.9031013738
 C         -0.9662812120       -1.6945461255       -4.4580022475
 C          3.3577313442        1.0487171507       -0.6617296065
 C          3.7435721230       -0.5448663092       -3.5510079400
 C          2.2431280847       -0.8466647815        3.3544580919
 C          0.2532357760       -3.0999079271        0.1031595842
 C          0.7555554426        1.0599207644        3.4611928626
 C         -1.3380068126       -1.6823778442       -1.0466786422
 C         -0.2690117204        1.6090284785        0.1118502491
 C          0.3873745474       -2.1137024202       -4.1262637930
 C          2.0299234449        1.6471266984       -0.6477884186
 C          2.6908941689       -1.5482285543       -3.6434248310
 C          3.0836222587        1.3654978908        2.9884287816
 C         -2.1000005004       -3.4151921097        0.4172721300
 C          0.4970245450        3.3537862626       -1.3357228467
 C          1.8883896363       -3.7739048817       -3.2732946345
 C          3.5982695181       -4.2580127356        2.9166146974
 C          3.2951769410       -4.7072072709        1.4635599426
 C         -2.9107851794        1.3542633804        3.5204540140
 C         -3.3093014145        0.9043338134        2.0756515572
 C         -2.8645255435        0.6276846382       -3.4822507231
 C         -2.5824668100       -0.0679017568       -4.8549902499
 C          5.5832577181        0.9054302557       -1.3627495504
 C          5.7804845586        0.2844823054       -2.7701359024
 Br         4.5406217556        2.5336497580        2.5832138398
 Br        -3.5424216232       -4.3469836778        1.2554184383
 Br         0.1343736922        4.9388321735       -2.3395028655
 Br         2.1996055092       -5.5674696701       -2.6919045192
 N          3.4926146613       -2.8309576615        2.9566551346
 N          1.9301192071       -4.3908223284        1.1886994448
 N         -1.5967947432        0.8502796792        3.7336257594
 N         -2.7357533261       -0.3689529987       -2.4679379951
 N         -2.4084211579        1.5409002007        1.1693878915
 N         -1.2285069864       -0.5036417966       -4.7974036305
 N          4.3010117846        1.5334987208       -1.3441722429
 N          4.8140264567       -0.7611599733       -2.9171447229
 H          4.5240405056       -6.6965903754        3.8532178939
 H          6.2232831847       -6.4492043578        3.4387419262
 H          5.0110965351       -7.7047791156        1.6480296043
 H          5.6225090608       -6.1573977037        1.0562260953
 H         -5.4122837352        2.2569086700        4.2935416884
 H         -5.9975771040        0.7224038055        4.9442138457
 H         -5.6786558217       -0.3599435883        2.7445685139
 H         -6.7250894269        1.0537904429        2.5784803524
 H         -3.7691441297        3.0403159246       -4.4946147323
 H         -5.4752618611        2.5957110189       -4.6030376874
 H         -4.2944426182        2.2422062792       -6.7748241473
 H         -4.9146745246        0.7235973613       -6.1190275132
 H          8.7991834545        2.1417911819       -1.0583592088
 H          8.1904630894        0.5892702110       -0.4773185696
 H          9.2390784766        0.3093028771       -2.7014421394
 H          8.1737741240        1.5462771999       -3.3762651608
 H          5.2008177522       -4.3613538799        4.3358213253
 H          5.7196404122       -4.1473787822        2.6614054887
 H          3.2870948041       -6.5116145584        0.3058395838
 H          2.7614925227       -6.7143986108        1.9792212303
 H         -3.7947292688       -0.3305349248        4.4970059622
 H         -3.6058557782        1.0913788161        5.5276909978
 H         -4.8005361579        2.4110353259        1.7930187882
 H         -5.0053768290        0.9809914961        0.7766351329
 H         -4.9886638662        0.3950607609       -3.5616120444
 H         -4.4365553188        1.7093620221       -2.5185686921
 H         -2.0378308544        1.7313454590       -5.8748036333
 H         -2.5924336194        0.4328979921       -6.9359893329
 H          6.5260225677        2.7692942416       -1.8281248109
 H          6.5106777885        2.3749022512       -0.1071923655
 H          7.2808183042       -1.1191408306       -2.1735319875
 H          7.3064209531       -0.7173202764       -3.8929972103
 H          0.1364103293       -0.9506519998        3.7884491524
 H          0.7877939413       -1.5099512806       -1.2332763332
 H          1.2037866153        0.1500463037        0.6467701057
 H          1.2258941696       -0.1804353770       -4.4310985460
 H          4.2884654331       -0.4173899430        2.8960957220
 H         -0.5770053811       -4.6005828482        1.3781205824
 H          1.6682602278        2.9729822936        3.0892892782
 H         -3.4028920149       -2.0948731503       -0.6832826372
 H         -1.5138897445        3.2063244459       -0.5695584476
 H         -0.1746057708       -4.1508131568       -3.7195301034
 H          2.5654831152        3.2650099777       -1.9370963343
 H          3.9021169292       -3.1295780303       -2.8627609627
 H          1.5893320130       -2.8755884404        3.7733669687
 H          2.3989915431       -2.8885371475       -0.1604866479
 H         -0.6976750579        2.6723218545        3.3195084223
 H         -0.7166637021        0.0266096052       -2.2222539491
 H         -1.0718460668       -0.0396168326        1.2630185304
 H         -1.7490382838       -2.4587186658       -4.3436725504
 H          3.4802553473        0.1496110375       -0.0370693646
 H          3.5312252952        0.4157834163       -4.0403042050
 H          2.8539784572       -4.7408737760        3.5722314260
 H          3.9854883068       -4.1691457254        0.7901670340
 H         -2.9450038839        2.4573117414        3.5437776450
 H         -3.2049706594       -0.1928755086        2.0475479921
 H         -2.1079162175        1.4216313521       -3.3698683186
 H         -3.2892535757       -0.9106212062       -4.9493590242
 H          5.6536961537        0.0920127677       -0.6191656895
 H          5.6273869313        1.0891105516       -3.5091044739
 C        -12.2830265858        7.6089076630        3.7707683699
 C        -11.1432198310        6.8572040344        4.4611616681
 O        -12.1950517762        8.9991833260        4.0348397067
 C        -10.9388587354        9.5079796581        3.6185672501
 C         -9.7989448544        8.7565998744        4.3091260863
 O         -9.8865822804        7.3661683769        4.0458706045
 H        -13.2512463976        7.2864874405        4.1539617050
 H        -11.2403133883        6.9631034397        5.5513632111
 H        -10.8422801525        9.4015650453        2.5283671021
 H         -9.8492247305        8.9290055400        5.3940151438
 H        -11.1500599667        5.8019796016        4.1878617973
 H        -10.9317079019       10.5633845748        3.8911379174
 H         -8.8307998284        9.0791839374        3.9258059045
 H        -12.2329260740        7.4372124932        2.6857904465