142
-211.12738072
 C          1.8794150646       -2.4129700070        8.4995333360
 C          3.0786313267       -1.4748039370        8.5994460707
 C         -6.6262561084       -4.1247302230       -0.5103273406
 C         -5.8946140068       -5.3170659560       -1.1151188579
 C         -0.7352756010        7.8954906541        0.4439490930
 C         -2.0276564348        7.2397021619       -0.0335115197
 C          1.9584310095        1.3946539259       -8.8572938370
 C          2.9170145064        2.3019489265       -8.0925557880
 C          0.7523111759       -1.7623212340        7.7047898696
 C          3.5606342228       -1.0710567125        7.2100833825
 C         -5.7010255665       -3.3677455566        0.4334197086
 C         -4.6475120947       -4.8468982000       -1.8524830346
 C          0.0935879643        6.9136027057        1.2654248746
 C         -1.7249899391        5.9805327086       -0.8391237292
 C          1.8385380789        0.0412070453       -8.1657858275
 C          2.4502911199        2.4766859516       -6.6517894585
 C         -1.9023673047       -1.0729092117        2.6757055178
 C          2.3140924839        2.4821911481        2.6141274541
 C         -0.4809165450       -2.7385282638       -3.4197118888
 C          0.7384053789        1.5597548641       -1.9727747126
 C         -1.5051517409        0.9062967920        3.9928863043
 C          3.5734644805        0.4379113090        2.3953977385
 C         -3.0435564018        0.9802920150        2.1312423962
 C          3.3130148282        1.9112848482        0.4992025402
 C          0.7659651647       -4.5966003989       -2.5281381472
 C          0.2486221637        0.3995722572        0.0810744736
 C          1.6797905569       -3.2838353843       -4.3372823927
 C          1.5709637920       -0.6761948617       -1.6256537302
 C         -0.2534643717       -1.1597438129        4.5158325721
 C          2.5151434196        0.9907563009        4.5647333077
 C         -3.5467568116       -1.0220897716        0.8076641969
 C          1.9377498344        3.9363207756        0.6337270951
 C         -1.4771430341       -4.1442006332       -1.6285825204
 C         -0.4587348790        2.7326344499       -0.1348517977
 C          0.4701359673       -1.3045343513       -5.1901815227
 C          2.0983531607        0.4550623735       -3.7372278060
 C         -1.2425972876       -0.4396477322        3.7241865720
 C          2.8183837325        1.3152565223        3.1783798907
 C         -2.8086779033       -0.3717632777        1.8820839487
 C          2.5482113123        2.7824426783        1.2743872356
 C         -0.3824645878       -3.8052280968       -2.5282545804
 C          0.1519940004        1.5455296042       -0.7102223130
 C          0.5443239918       -2.4689582149       -4.3199309645
 C          1.4597080488        0.4605967395       -2.4280540722
 C         -2.3939938732        1.5898637149        3.1892957820
 C          3.8091042200        0.7553986745        1.0739211220
 C          1.7723485558       -4.3271312251       -3.4388780642
 C          0.9418095073       -0.6940049540       -0.3968594128
 C          1.2343158163       -1.3796385864        6.3035996755
 C          2.4331937640       -0.4068118674        6.4228056650
 C         -4.4340916018       -2.8831623863       -0.2884380496
 C         -3.7001359024       -4.0757155795       -0.9211330830
 C          0.4136829079        5.6653655044        0.4492439068
 C         -0.9254455251        4.9901116032        0.0007575169
 C          1.3542380895        0.2019019001       -6.7269191973
 C          2.3402825018        1.1290918589       -5.9443661614
 Br        -2.7346112050        3.4386272368        3.5352342449
 Br         4.8256917745       -0.4433008684       -0.0150863633
 Br         3.3374143647       -5.4323682739       -3.4480479076
 Br         1.0607141092       -2.2545462349        0.6839291734
 N          0.1995782123       -0.6905415332        5.5964783257
 N          2.8655909665       -0.1007120128        5.0934051728
 N         -3.5906459647       -2.2784703869        0.6992938901
 N          1.1278432030        4.7066713692        1.2286995148
 N         -2.6133794599       -3.6029266036       -1.7268358979
 N         -0.5659331562        3.8325131903       -0.7516682210
 N          1.3623232016       -1.0524548303       -6.0517790124
 N          1.8018907296        1.2979455459       -4.6329655755
 H          2.1825419734       -3.3386120262        8.0051429568
 H          1.5195784580       -2.6662116860        9.4984123307
 H          3.8908649326       -1.9649016759        9.1389876444
 H          2.7945447768       -0.5801609267        9.1584389049
 H         -6.9601268567       -3.4580025361       -1.3085336281
 H         -7.5066128199       -4.4622660522        0.0395853738
 H         -5.6102503640       -6.0116204700       -0.3216899150
 H         -6.5480817194       -5.8467460218       -1.8106323849
 H         -0.1538733160        8.2254744893       -0.4202197152
 H         -0.9651309796        8.7731465707        1.0501669341
 H         -2.5951897604        7.9394865753       -0.6493421624
 H         -2.6399485012        6.9752253547        0.8315188064
 H          2.3147804337        1.2505691410       -9.8786932160
 H          0.9737567334        1.8652238876       -8.9068853951
 H          2.9753681643        3.2778081808       -8.5777596028
 H          3.9168861108        1.8620821635       -8.0990032983
 H         -0.0926933185       -2.4478829907        7.6102050601
 H          0.4011789037       -0.8613437710        8.2109240830
 H          4.3970533108       -0.3731952455        7.2846550418
 H          3.9012199354       -1.9470233424        6.6557787374
 H         -5.3966361920       -4.0135600159        1.2594353345
 H         -6.2112323268       -2.4992652700        0.8567561663
 H         -4.9241761300       -4.1886075278       -2.6784112496
 H         -4.1060705217       -5.6987527919       -2.2699351204
 H         -0.4507617885        6.6133001290        2.1618148932
 H          1.0316373018        7.3763795782        1.5783508128
 H         -1.1492030809        6.2273446654       -1.7324889785
 H         -2.6528438996        5.5020557668       -1.1576336221
 H          2.8056202071       -0.4638180132       -8.1503229035
 H          1.1333632086       -0.5984335319       -8.7005432508
 H          1.4729366804        2.9611818877       -6.6249906666
 H          3.1521013329        3.1035385227       -6.0981897783
 H         -1.7232178461       -2.1139938489        2.4581221421
 H          1.7209036350        3.1706419966        3.1955665172
 H         -1.3709089413       -2.1292851450       -3.3950344323
 H          0.6567060327        2.4387269069       -2.5906497697
 H         -0.9987815862        1.3813116613        4.8173630112
 H          3.9463368177       -0.4706380137        2.8401941601
 H         -3.7368438773        1.5290452399        1.5112942927
 H          3.4987752564        2.1294308553       -0.5417368673
 H          0.8646710207       -5.4139184274       -1.8302316478
 H         -0.2044320754        0.3731624845        1.0604903154
 H          2.4635613849       -3.0733106655       -5.0470203512
 H          2.1401031305       -1.5284565056       -1.9631897019
 H          0.0818415208       -2.1195647919        4.0993247308
 H          1.9383419484        1.7491586804        5.1125951988
 H         -4.0944022018       -0.3469750171        0.1340548509
 H          2.1939114140        4.0721692485       -0.4275513122
 H         -1.2639347828       -4.9328977687       -0.8931870621
 H         -0.7769429066        2.6249170488        0.9131657159
 H         -0.3960392839       -0.6458580735       -5.0312677610
 H          2.8426301893       -0.3374441596       -3.8969365775
 H          1.5679676037       -2.2807994753        5.7599336761
 H          2.0736999389        0.4949091834        6.9487472670
 H         -4.7112928980       -2.1698674501       -1.0838418942
 H         -3.3506165208       -4.7390412706       -0.1110541561
 H          0.9623040899        5.9302253401       -0.4710113488
 H         -1.4754891471        4.7275445288        0.9195244893
 H          0.3607260012        0.6825739845       -6.6984690125
 H          3.3153799973        0.6144697548       -5.9255334735
 C         -6.7114435150        2.2432545325        0.9555807859
 C         -7.8794728734        2.3408589736       -0.0260395959
 O         -5.4773955130        2.1946539933        0.2550866340
 C         -5.3326285085        3.3336495749       -0.5794533935
 C         -6.5037618781        3.4346630756       -1.5573261778
 O         -7.7357659140        3.4780373149       -0.8588598165
 H         -6.7690749412        1.3253934275        1.5415570391
 H         -7.9165561077        1.4327013846       -0.6454893497
 H         -5.2915091478        4.2380676933        0.0434472676
 H         -6.4940742224        2.5673269381       -2.2336612535
 H         -8.8232262899        2.4670455700        0.5043346783
 H         -4.3905184581        3.2042578369       -1.1131742870
 H         -6.4472676825        4.3564566522       -2.1358952640
 H         -6.7170821646        3.1153489024        1.6243818005