142
-211.12883891
 C          3.4108694231       -6.8614811888        2.2641044194
 C          3.1043702065       -7.0122405803        0.7775513328
 C         -5.1430783067        2.5827369010        4.1169360929
 C         -5.5280688382        2.4431421087        2.6477072203
 C         -3.4565527310        4.5607383807       -4.5555232843
 C         -3.2795185280        4.0031540225       -5.9641921542
 C          8.1730674876        0.0637285364       -0.8710593405
 C          8.3016704059       -0.3901857243       -2.3215288600
 C          3.5780274468       -5.3897846095        2.6242195787
 C          1.8509958522       -6.2267922803        0.4109788615
 C         -3.8684887781        1.7994167135        4.4091931874
 C         -4.3912677572        2.9163451759        1.7487450562
 C         -3.5959753371        3.4260112586       -3.5469386169
 C         -2.0644248002        3.0844607990       -6.0248213499
 C          6.9673944743        0.9810056330       -0.7062386123
 C          7.0277117099       -1.0963292903       -2.7709056298
 C          0.6690218459       -0.2663526291        3.4473566402
 C         -0.4416276403       -1.0970832890       -1.1715176014
 C          1.2126628628        1.4212070032        0.1930672493
 C          1.3402798567       -0.2830591911       -4.3125453913
 C          3.0367412324       -0.4485596661        3.0453594811
 C         -1.6974675798       -2.7546984476        0.0406697825
 C          2.0297448898        1.7202401128        3.3934190516
 C         -2.8297346772       -0.8676604803       -0.9618189067
 C          0.2024956789        3.5502975618       -0.3036032123
 C         -0.0375205442       -2.2580748665       -4.2580945464
 C          2.4713380559        3.0894697166       -1.0014774990
 C          2.2892732009       -2.3857874831       -3.6200235397
 C          1.6321971076       -2.4913152947        3.0105000421
 C          0.7585657047       -3.0100633858       -0.1830848204
 C         -0.4128723134        1.9506784838        3.6317831904
 C         -1.5380190345        0.8384766991       -2.2169251083
 C         -1.0958167418        1.8336941904        0.9294306631
 C         -1.0772544080       -0.0935165329       -4.8087433540
 C          3.5258481317        0.9060663132       -0.4867293323
 C          3.6958391402       -0.3452551831       -3.5895699795
 C          1.7851749780       -1.0533917046        3.1891076102
 C         -0.4758809465       -2.2817331988       -0.4421905828
 C          0.7785127149        1.1209314780        3.5314891845
 C         -1.6097126688       -0.3857759340       -1.4344777445
 C          0.1160151570        2.2771448447        0.2584032289
 C          0.0990129677       -0.8909562899       -4.4954654455
 C          2.3922149832        1.8186434141       -0.4290185217
 C          2.4314694330       -1.0166685850       -3.8613760189
 C          3.1366370067        0.9229352960        3.1613985477
 C         -2.8483946703       -2.0381586805       -0.2258435662
 C          1.3760931384        3.9286750708       -0.9292289068
 C          1.0627983776       -2.9814004796       -3.8331767834
 C          2.3240760989       -4.5921592555        2.2684787964
 C          2.0108943392       -4.7451689060        0.7577374001
 C         -2.7151789867        2.2709071357        3.5268531335
 C         -3.1182483242        2.1225584900        2.0222568818
 C         -2.3798413187        2.5063766211       -3.5886257158
 C         -2.1980917856        1.9321596774       -5.0325828075
 C          5.6799991174        0.2798059738       -1.1442710029
 C          5.8114438041       -0.1838594730       -2.6179535982
 Br         4.8456518921        1.7530022962        2.9583038784
 Br        -4.5171469327       -2.6757127019        0.4510704744
 Br         1.4795842124        5.6614131710       -1.7279337611
 Br         0.8638706418       -4.8519276304       -3.4986359280
 N          2.5539601650       -3.2019505571        2.5208821149
 N          0.7790047222       -4.0703734889        0.4994614436
 N         -1.5705042730        1.4438459160        3.7043941484
 N         -2.5611928176        1.3960027661       -2.7091807790
 N         -2.0356819087        2.6226364917        1.2369998179
 N         -1.0049043935        1.1563592340       -4.9951144364
 N          4.5976965969        1.2090588596       -1.0781604754
 N          4.6237928044       -0.9118728251       -2.9474840164
 H          2.5935028876       -7.2883487460        2.8495780801
 H          4.3243029130       -7.4031291248        2.5155038941
 H          2.9559046532       -8.0643435922        0.5295894781
 H          3.9488055401       -6.6437432221        0.1909850680
 H         -4.9827711474        3.6374768259        4.3523013533
 H         -5.9479784664        2.2095805376        4.7513736817
 H         -5.7488621287        1.3961356829        2.4287346625
 H         -6.4250779899        3.0283556022        2.4397853173
 H         -2.5902509491        5.1729989202       -4.2949891251
 H         -4.3429996878        5.1955840395       -4.5134913662
 H         -3.1520557329        4.8201344346       -6.6761727582
 H         -4.1729290708        3.4429480996       -6.2495761144
 H          9.0749409400        0.5946139843       -0.5624632724
 H          8.0574390681       -0.8084918817       -0.2239495423
 H          9.1500280999       -1.0682739902       -2.4284280335
 H          8.4808659293        0.4776594267       -2.9601196785
 H          3.7714716433       -5.2773927775        3.6930053572
 H          4.4232799931       -4.9621056709        2.0823311004
 H          1.6428344136       -6.3143858201       -0.6570534749
 H          0.9883481656       -6.6149396049        0.9546870277
 H         -4.0307694362        0.7357877261        4.2283807888
 H         -3.5792097489        1.9221504606        5.4547508949
 H         -4.1845068613        3.9738996309        1.9202852605
 H         -4.6581476807        2.7901324093        0.6978684978
 H         -4.4862943602        2.8328895893       -3.7619600169
 H         -3.6921210773        3.8258255523       -2.5359310639
 H         -1.1565811278        3.6412222746       -5.7869220320
 H         -1.9515652964        2.6675126148       -7.0277284819
 H          7.0906368023        1.8805276367       -1.3113219855
 H          6.8594093226        1.2885540514        0.3356349299
 H          6.8621662884       -1.9936798790       -2.1722724164
 H          7.1073151980       -1.3991716642       -3.8169954060
 H         -0.3089354863       -0.7091313916        3.5556711629
 H          0.5009289799       -0.7260167777       -1.5483905128
 H          1.1459291659        0.4392980945        0.6398522609
 H          1.4237971342        0.7762395120       -4.5000108913
 H          3.8968486061       -1.0670079519        2.8446238938
 H         -1.7144510182       -3.6715095946        0.6076183808
 H          2.1304370981        2.7933941325        3.4549513049
 H         -3.7296070486       -0.3135291838       -1.1750561477
 H         -0.6498470475        4.2077671735       -0.2433443193
 H         -0.9926719699       -2.7426048531       -4.3940486698
 H          3.3880912493        3.3879666725       -1.4838337446
 H          3.1413788637       -2.9463925480       -3.2704509174
 H          0.6553317565       -2.9061664454        3.2950730902
 H          1.6681577497       -2.5733096740       -0.6255855763
 H         -0.2492271220        3.0372029369        3.5822724122
 H         -0.5248169287        1.2419517067       -2.3605816574
 H         -1.1349601761        0.7587617710        1.1596867394
 H         -2.0354041067       -0.6336218301       -4.8191431678
 H          3.3821594208       -0.0615390071        0.0200705840
 H          3.7737612296        0.6900533550       -3.9492465445
 H          1.4498363650       -4.9689607035        2.8259603814
 H          2.8483173760       -4.3028006595        0.1896323468
 H         -2.4916833360        3.3371716488        3.7051195294
 H         -3.2820245081        1.0466940595        1.8460979521
 H         -1.4582799783        3.0637404490       -3.3532406697
 H         -3.0877986851        1.3188471451       -5.2582297217
 H          5.4938900197       -0.6128527316       -0.5211791174
 H          5.9209802056        0.7210780562       -3.2393179673
 C         -9.8997785780        0.3765415787        5.1255589461
 C         -8.4040087765        0.0740386134        5.0234082450
 O        -10.3356443941        0.2906162125        6.4723502164
 C         -9.5919170179        1.1732273681        7.2953694187
 C         -8.0955921015        0.8712625570        7.1937400197
 O         -7.6610959762        0.9581693452        5.8472221890
 H        -10.4843879753       -0.3554668171        4.5683974352
 H         -8.2153110766       -0.9631153602        5.3347381993
 H         -9.7794303650        2.2112794307        6.9844267507
 H         -7.8968702259       -0.1390965524        7.5790214814
 H         -8.0443274609        0.2277488078        4.0064947773
 H         -9.9527277412        1.0191483599        8.3123911879
 H         -7.5112821278        1.6033735924        7.7514907719
 H        -10.0977835893        1.3870083039        4.7396051808