142
-211.12689800
 C         -4.3442327148       -5.2204311639        6.5261603825
 C         -5.4037076364       -5.6740751962        5.5269248429
 C          5.4446580918        2.0340519434        6.5165022909
 C          4.7451273566        3.3834997555        6.6347929978
 C         -2.7445573686       -4.8981771419       -6.7300614628
 C         -1.2695207787       -5.2820959466       -6.7459087635
 C          3.8375229741        6.9921098959       -5.3130331419
 C          3.5967056644        5.9441666744       -6.3948269258
 C         -3.0145230755       -4.9794744645        5.8207143310
 C         -5.5634694909       -4.6429937631        4.4154812219
 C          4.4647047403        0.9740163332        6.0293310113
 C          4.1479199888        3.7857777649        5.2921221928
 C         -3.1671366060       -4.4996357831       -5.3218782154
 C         -0.4202755460       -4.1221879863       -6.2422212420
 C          2.8815695903        6.7797110301       -4.1448056797
 C          3.7525402877        4.5406277489       -5.8209462701
 C          0.9147690392       -1.5883532819        3.7137373372
 C         -3.6080904896       -2.7367170776       -0.7620298489
 C          1.9257870913        4.0481258216        0.9166016130
 C          1.5300101736       -0.2607573848       -3.8723637207
 C          0.3045098692       -3.4563473338        2.3252284209
 C         -4.8193157731       -1.3497509648        0.7914042612
 C          2.3773376407       -2.2807872607        1.9294288942
 C         -4.4775080371       -0.6078919858       -1.4811543895
 C         -0.3176384230        4.1407802850        1.7854674227
 C          2.7937485856       -1.7022708014       -2.4140325958
 C          0.1305811786        4.8323561645       -0.4841550350
 C          3.4525325083        0.6041878443       -2.7073140849
 C         -1.2290216070       -2.7570688181        4.1231552752
 C         -3.9701445858       -3.5466336752        1.5435675590
 C          3.0508592605       -0.3818358999        3.3404799397
 C         -3.2818499334       -2.0139762663       -3.1138780005
 C          1.4993955259        3.3737860354        3.2638722466
 C          0.8632913051       -2.6417099622       -3.6118951412
 C          2.4327160984        4.7583248418       -1.3905057322
 C          2.1650102172        2.1107522999       -4.1794087860
 C          0.0182578998       -2.5983208930        3.3880484712
 C         -4.1248031970       -2.5297868444        0.5119331706
 C          2.0985608809       -1.4282626755        2.9964000134
 C         -3.7817530354       -1.7832692837       -1.7644977354
 C          1.0331201452        3.8498295932        1.9685749661
 C          1.7318266456       -1.5146247351       -3.2978485052
 C          1.4850581379        4.5405294300       -0.3063453519
 C          2.3847878827        0.7978654488       -3.5869310167
 C          1.4695457083       -3.2732697725        1.6145037215
 C         -4.9833347312       -0.4128529648       -0.2072405491
 C         -0.7431302504        4.6207330326        0.5603453943
 C          3.6287845312       -0.6362666704       -2.1327520712
 C         -3.1684584551       -3.9304059640        4.7138855313
 C         -4.2325770500       -4.4031405812        3.7003164933
 C          3.8553766639        1.3611186177        4.6760597380
 C          3.1572132993        2.7306884801        4.7858247305
 C         -2.3233437915       -3.3319291616       -4.7931285331
 C         -0.8294098530       -3.7040449611       -4.8228387123
 C          3.0391442478        5.3746586769       -3.5597239716
 C          2.7826594493        4.3177696285       -4.6552648669
 Br         1.8268753525       -4.4186870441        0.1394705314
 Br        -5.9358266747        1.2046547319        0.1765365352
 Br        -2.5961328254        4.9937496226        0.3119988613
 Br         5.0509389603       -0.8829753838       -0.8812052863
 N         -1.9305553597       -3.7994438572        4.0092680641
 N         -4.4038441115       -3.3769475133        2.7168879954
 N          2.8742118999        0.3760078456        4.3347337153
 N         -2.7207605838       -3.0961737353       -3.4388778634
 N          2.7178652325        3.1295936315        3.4837773557
 N         -0.0537971682       -2.5511515550       -4.4750074839
 N          2.0716426966        5.1858149029       -2.5218564616
 N          3.0245326678        3.0294226339       -4.0830351863
 H         -4.6713750817       -4.2970337212        7.0093763549
 H         -4.2112080516       -5.9778958657        7.3006881598
 H         -6.3599136762       -5.8140228405        6.0340111116
 H         -5.1081861272       -6.6323070652        5.0936764187
 H          6.2750612038        2.1139598406        5.8116372499
 H          5.8502718245        1.7346865824        7.4845073298
 H          3.9516787816        3.3189215807        7.3827507373
 H          5.4539552455        4.1472558486        6.9593908538
 H         -2.9118326105       -4.0620650523       -7.4127610689
 H         -3.3555480741       -5.7372776119       -7.0673513794
 H         -0.9596046140       -5.5442097787       -7.7590817861
 H         -1.1120124207       -6.1538006629       -6.1072211030
 H          3.6936176364        7.9930442557       -5.7234872903
 H          4.8677797130        6.9180124959       -4.9575957340
 H          4.3053862227        6.0813151434       -7.2135275568
 H          2.5882225256        6.0619978576       -6.7975583885
 H         -2.2616632024       -4.6306873508        6.5312661732
 H         -2.6506512243       -5.9055454779        5.3719365495
 H         -6.2995797782       -4.9815519600        3.6835821106
 H         -5.9101392039       -3.6932120981        4.8261305740
 H          3.6526845421        0.8519970634        6.7486103530
 H          4.9661405464        0.0098272508        5.9209808389
 H          4.9372696705        3.8974714847        4.5467769103
 H          3.6263942695        4.7418045953        5.3757929463
 H         -3.0454733418       -5.3429022633       -4.6398013527
 H         -4.2185167502       -4.2038358553       -5.3068824127
 H         -0.5347717437       -3.2584404690       -6.9000432388
 H          0.6363278144       -4.3983986586       -6.2302088301
 H          1.8480812195        6.9020564638       -4.4732136903
 H          3.0726799655        7.5111211462       -3.3568710818
 H          4.7707020066        4.3912685515       -5.4571275114
 H          3.5551099805        3.7892238808       -6.5888014151
 H          0.7167531085       -0.9124714596        4.5309489686
 H         -3.0705894753       -3.6395075432       -1.0057018940
 H          2.9664946135        3.8148119466        1.0799117558
 H          0.7018244137       -0.1372976278       -4.5522339927
 H         -0.3991082124       -4.2350892317        2.0793777276
 H         -5.2211720473       -1.2026785072        1.7805846795
 H          3.2884664136       -2.1617204752        1.3623307157
 H         -4.6254300594        0.1392295269       -2.2466664527
 H         -1.0237638389        3.9923317744        2.5888494157
 H          2.9584486951       -2.6685671041       -1.9625880214
 H         -0.2016995075        5.2124454786       -1.4364475542
 H          4.1115909902        1.4304468204       -2.4965135536
 H         -1.5173933582       -1.9168044976        4.7715582757
 H         -3.4656253388       -4.4712997110        1.2306210829
 H          3.9341315146       -0.3029706053        2.6905136708
 H         -3.4500280285       -1.1991789927       -3.8344520320
 H          0.7292535805        3.2632599714        4.0426549144
 H          1.0728227654       -3.5724694196       -3.0672778224
 H          3.4831107278        4.5313759253       -1.1569888153
 H          1.2096320291        2.2465610396       -4.7058195108
 H         -3.4937617483       -2.9713402869        5.1534742354
 H         -3.8647188839       -5.3407071319        3.2477045278
 H          4.6489394502        1.4323198726        3.9119113702
 H          2.3132643710        2.6319848780        5.4917204495
 H         -2.4722087884       -2.4398687132       -5.4272588042
 H         -0.6598636820       -4.5394848096       -4.1223181909
 H          4.0684780699        5.2275933043       -3.1872661788
 H          1.7420843638        4.4198559180       -5.0096270351
 C         -1.1354025447        0.1952689876        1.4386010570
 C         -1.8154936704        1.0637811198        0.3826567416
 O         -0.1181202691       -0.5937671908        0.8447031717
 C          0.8327283923        0.2330752046        0.1979186500
 C          0.1549833835        1.1029133208       -0.8589657221
 O         -0.8666403638        1.8858150091       -0.2748044983
 H         -1.8436954695       -0.5033756542        1.8836214541
 H         -2.3087704800        0.4153075340       -0.3540416729
 H          1.3313466237        0.8725413929        0.9410202098
 H         -0.2728434779        0.4579392699       -1.6403955503
 H         -2.5442640346        1.7361458830        0.8344347563
 H          1.5565346611       -0.4373589816       -0.2630043980
 H          0.8631375284        1.8033679746       -1.3018017773
 H         -0.6902889940        0.8311556260        2.2166397031