142
-211.12764340
 C         -0.3260091865       -4.0796811425       -5.1849021526
 C         -1.1106841141       -5.1716279855       -4.4648484964
 C          1.3152167243        7.5544370688        3.0449470169
 C          2.2843811282        8.1414671462        2.0237827562
 C         -6.2875549279        2.7180002614        4.2937942618
 C         -5.5913916231        3.8725752823        3.5803332235
 C          6.8456277732       -3.7823159613        0.2711945271
 C          5.8431085005       -4.4499802746        1.2068661006
 C         -0.7588535957       -2.7033820827       -4.6941474343
 C         -0.9167967095       -5.0571977589       -2.9572395249
 C          0.2826382479        6.6715115441        2.3531251141
 C          2.9731356680        7.0288910711        1.2415795442
 C         -5.7713519507        1.3810114663        3.7740268379
 C         -4.0805624448        3.7773840116        3.7611907621
 C          6.1332583555       -2.8103175530       -0.6622374912
 C          5.0843045086       -3.3996493149        2.0088083026
 C         -0.1296831776        1.5282390856       -0.7189871773
 C         -2.3869160906       -1.8867993303        1.8539754924
 C          3.4357064270        2.4810618126       -0.9759829834
 C          0.5723469008        0.2960840734        2.2487367976
 C         -2.1881276954        1.1618540143       -1.9119286650
 C         -0.5036890316       -3.3829911353        1.7280813578
 C         -1.8749430617        3.1853379037       -0.6259724003
 C         -0.9814389291       -2.2059580411        3.7836416704
 C          2.0239101745        2.8158017755       -2.8985274282
 C          0.6612482256        1.9965912219        3.9518782260
 C          3.1686552511        0.7107418370       -2.5869720904
 C          2.6218698572        0.6719521115        3.4539756528
 C         -0.3949826339       -0.5450792612       -2.0277949547
 C         -1.8919900212       -2.9944788788       -0.2894454137
 C          0.2465902852        3.5686712655        0.5999712263
 C         -2.7943864986       -0.5393536058        3.8881646631
 C          2.1420305731        4.5796734798       -1.1808301974
 C         -1.4534030259        1.6084902340        2.7153132386
 C          4.5519090089        0.3233921953       -0.5661768632
 C          2.5398823740       -1.0908743189        1.7135717625
 C         -0.9104288209        0.7308447302       -1.5503047140
 C         -1.6009515923       -2.7673980313        1.1198864922
 C         -0.6033292044        2.7520373859       -0.2525182460
 C         -2.0735960798       -1.5855593400        3.1785432722
 C          2.5726049347        3.2939679668       -1.7093525050
 C         -0.0544752218        1.3058601127        2.9747349038
 C          3.7242793556        1.1881527843       -1.3969138465
 C          1.9046302316       -0.0300962270        2.4835480567
 C         -2.6456879693        2.3779036875       -1.4419976043
 C         -0.2223552456       -3.0998762569        3.0491849999
 C          2.3397464051        1.5360195371       -3.3193635141
 C          1.9878471269        1.6713017826        4.1669566250
 C         -0.5618051628       -2.5716391834       -3.1824845366
 C         -1.3576548257       -3.6840106629       -2.4523094092
 C          0.9592850437        5.5457629455        1.5777493199
 C          1.9518819780        6.1467719671        0.5280769144
 C         -4.2614708571        1.2641710950        3.9658025491
 C         -3.5508468775        2.4489160497        3.2311879424
 C          5.3729707901       -1.7468379759        0.1290800485
 C          4.3553392734       -2.4230910889        1.0835943972
 Br        -4.4010458102        2.9590174090       -1.9240302768
 Br         1.2806846752       -3.9355938876        3.8818458478
 Br         1.5727359761        0.8829671398       -4.9430378088
 Br         2.9749312203        2.6422948070        5.4838538848
 N         -1.0833402105       -1.3133387657       -2.7533201701
 N         -1.0702923990       -3.5723700967       -1.0544222426
 N         -0.0080805303        4.7805202074        0.8583905917
 N         -3.7643322096        0.0770470930        3.3575359929
 N          2.5886367264        5.0315642361       -0.0860404621
 N         -2.1508183815        2.3300885600        3.4854656463
 N          4.6302032893       -0.9197808328       -0.7727678441
 N          3.7531063401       -1.3963121440        1.8725471665
 H          0.7417949180       -4.2128639749       -4.9984605464
 H         -0.4906859996       -4.1465610073       -6.2614102659
 H         -0.7791493852       -6.1556014728       -4.8003475184
 H         -2.1720948898       -5.0723715008       -4.7018053013
 H          1.8705586682        6.9599616979        3.7739359961
 H          0.8065296095        8.3568010254        3.5816136665
 H          1.7384259646        8.7872976299        1.3322086607
 H          3.0371132348        8.7486163909        2.5291319037
 H         -6.0999374019        2.7868683031        5.3678017911
 H         -7.3655624880        2.7765551559        4.1354018164
 H         -5.9458724028        4.8251438161        3.9772132705
 H         -5.8318496346        3.8402356001        2.5152716032
 H          7.3675036180       -4.5369782122       -0.3196022450
 H          7.5894055738       -3.2415156598        0.8605864748
 H          6.3599537621       -5.1231950908        1.8924905556
 H          5.1357794544       -5.0422249373        0.6222256399
 H         -0.1818415500       -1.9207474913       -5.1902870069
 H         -1.8136250864       -2.5364159604       -4.9177756595
 H         -1.4973253781       -5.8226380150       -2.4382545747
 H          0.1340105549       -5.1984757880       -2.6990319369
 H         -0.3163609520        7.2604930073        1.6567119489
 H         -0.3919005971        6.2282301819        3.0878270259
 H          3.5610796939        6.4016925999        1.9136546647
 H          3.6495657491        7.4501978248        0.4950377897
 H         -5.9932659053        1.2771260975        2.7106764986
 H         -6.2533360288        0.5553476488        4.3015968599
 H         -3.8176609585        3.8587361486        4.8171052364
 H         -3.5816205430        4.5869004964        3.2254546210
 H          5.4208172635       -3.3454530622       -1.2923417384
 H          6.8522268620       -2.3113959494       -1.3153355865
 H          5.7735361132       -2.8298522646        2.6338944218
 H          4.3502566083       -3.8736659781        2.6631444842
 H          0.8610840438        1.2010205212       -0.4371124798
 H         -3.2352635633       -1.3943192646        1.4045592659
 H          3.8475356858        2.8699214135       -0.0576212252
 H          0.0111029937       -0.2453394840        1.5004015845
 H         -2.7869992694        0.5363486681       -2.5540211280
 H          0.1006472155       -4.0642252444        1.1508074466
 H         -2.2304741567        4.1369128750       -0.2648350951
 H         -0.7256190362       -1.9822758993        4.8083882846
 H          1.3525954115        3.4328261636       -3.4766258318
 H          0.1658988172        2.7725982687        4.5129160541
 H          3.3978419290       -0.2935210934       -2.9055423057
 H          3.6541721876        0.4141965394        3.6275519372
 H          0.6325658114       -0.7890766247       -1.7142735757
 H         -2.8535911138       -2.6008129673       -0.6468995119
 H          1.1361597731        3.0589208290        0.9984948420
 H         -2.4095538211       -0.2807736699        4.8855244134
 H          1.3680539173        5.1039335457       -1.7603489253
 H         -1.8676235027        1.1554018375        1.8025416388
 H          5.0711214951        0.8168289308        0.2670661423
 H          1.8892120765       -1.6062354144        0.9891625757
 H          0.5045392175       -2.6860489291       -2.9191849375
 H         -2.4274354725       -3.5158499064       -2.6631129213
 H          1.5592221476        4.9113312909        2.2507301668
 H          1.3557330870        6.7355351772       -0.1906541414
 H         -3.9932585240        1.3298221789        5.0345862350
 H         -3.7787780145        2.3356678652        2.1585458216
 H          6.0645276876       -1.1538653266        0.7513242800
 H          3.6112915723       -2.9566823878        0.4660738778
 C         -6.1570168571       -8.5770840668       -8.2006347057
 C         -5.1745735752       -8.6072380555       -9.3732314736
 O         -5.4755354759       -8.7806571473       -6.9741741867
 C         -4.4597809569       -7.8069989397       -6.7988433264
 C         -3.4775268237       -7.8366919811       -7.9715959917
 O         -4.1596113547       -7.6332755150       -9.1978577111
 H         -6.8862459341       -9.3832029848       -8.2819364933
 H         -4.7181392119       -9.6051303439       -9.4450173297
 H         -4.9164580412       -6.8092834377       -6.7269620848
 H         -2.9619848756       -8.8076827500       -7.9946023979
 H         -5.6764898582       -8.3599848622      -10.3087639177
 H         -3.9587317847       -8.0563042301       -5.8634759549
 H         -2.7487606270       -7.0301574860       -7.8918580354
 H         -6.6726162303       -7.6060595646       -8.1776971332