142
-211.12660543
 C          0.4608532679       -7.1799125541        0.6529965959
 C          0.4181799807       -6.9770737267       -0.8581337939
 C         -5.5649967802        3.8861045725        3.3847012075
 C         -5.7092452173        4.1017358626        1.8815510060
 C         -1.7949324146        6.7121119521       -4.4685306973
 C         -1.5148689121        6.3636128462       -5.9269097815
 C          7.2865338295       -1.5778304942       -0.2158726128
 C          7.5848728861       -1.7848423006       -1.6972523779
 C          0.9295903592       -5.9057883643        1.3462867241
 C         -0.4932803574       -5.8083471784       -1.2126654461
 C         -4.6196921739        2.7242284926        3.6688338526
 C         -4.3465826228        4.3550028647        1.2463731267
 C         -2.4050516850        5.5178739567       -3.7434042319
 C         -0.5886439056        5.1561244688       -6.0177253419
 C          6.3512678196       -0.3902254707       -0.0232865520
 C          6.2902886598       -1.9931707066       -2.4745566771
 C         -0.6724580340       -0.3846099280        2.8725547691
 C         -1.0281244624       -0.0504811600       -1.9674891767
 C          0.8559698698        1.5639794433        0.1489871633
 C          1.4360465114        0.7027392486       -4.6020549190
 C          1.6023155636       -1.1684144563        2.7603082058
 C         -2.8763980243       -1.4406813177       -1.2995203715
 C          1.1357778994        1.1059904306        3.4292865068
 C         -3.2682660123        0.8315607463       -2.0275296544
 C          0.5497756753        3.9475879753       -0.0084110321
 C         -0.3930311394       -0.7596168829       -5.1664300978
 C          2.7089941197        2.9662829025       -0.4790899901
 C          1.6486549365       -1.6708270261       -4.2512388887
 C         -0.2439668567       -2.6824123219        2.0936521799
 C         -0.5771005875       -2.3653377758       -1.2480506814
 C         -1.1652763027        1.9859396943        3.3827104494
 C         -1.3672829138        2.2649192267       -2.7218651348
 C         -1.3590959861        2.5060814394        0.6474094666
 C         -0.7049244435        1.6747067706       -5.3759208485
 C          3.0395846993        0.5154465430       -0.3116478855
 C          3.5024408539       -0.1699645936       -3.5795746270
 C          0.2339023868       -1.4029793404        2.6012331130
 C         -1.5063447675       -1.2747807774       -1.5102552799
 C         -0.2300010323        0.8771633099        3.2671613385
 C         -1.8991298123        1.0047780745       -2.2265101388
 C          0.0292166775        2.6801164845        0.2499540251
 C          0.1393598454        0.5263243438       -5.0830243996
 C          2.1937546034        1.6969310617       -0.2103429850
 C          2.1874466199       -0.3839625457       -4.1697654644
 C          2.0254847514        0.0757191520        3.1815222050
 C         -3.7292242319       -0.3852278812       -1.5597788751
 C          1.8779319684        4.0651605328       -0.3746195030
 C          0.3754637369       -1.8350149279       -4.7574663741
 C          0.0169321983       -4.7287957123        1.0044501107
 C         -0.0243521111       -4.5210504773       -0.5311928208
 C         -3.2451174986        2.9727499355        3.0533131033
 C         -3.3975798061        3.1908146681        1.5114330652
 C         -1.4819183237        4.3057902112       -3.8163740661
 C         -1.1959487364        3.9465433823       -5.3118466785
 C          5.0424404967       -0.5925450580       -0.7896478618
 C          5.3447656257       -0.8060242860       -2.2950891132
 Br         3.8963733584        0.4013040416        3.3933893104
 Br        -5.6023712683       -0.6076637984       -1.2550051122
 Br         2.5802943078        5.8005117632       -0.7573182125
 Br        -0.3664712470       -3.5926148347       -4.8624133170
 N          0.5416369122       -3.5305497057        1.5858974173
 N         -0.9637483927       -3.4803666674       -0.8034564111
 N         -2.4085913932        1.8305421570        3.2028010217
 N         -2.1020598923        3.1678722682       -3.2164685948
 N         -2.0983546559        3.4734986311        0.9907364011
 N         -0.2747277143        2.8613287430       -5.2814620779
 N          4.2461604666        0.5870486095       -0.6714515129
 N          4.1010531735       -1.0839957044       -2.9467539176
 H         -0.5359014060       -7.4440351904        1.0132005436
 H          1.1373758181       -7.9991596928        0.9021652482
 H          0.0522957419       -7.8808000558       -1.3478404252
 H          1.4259691406       -6.7775479069       -1.2287971802
 H         -5.1727870504        4.7947304528        3.8473291321
 H         -6.5400777311        3.6763470287        3.8272395567
 H         -6.1614872258        3.2165529561        1.4286162685
 H         -6.3648103283        4.9520873184        1.6873780950
 H         -0.8619892651        6.9968470494       -3.9768439092
 H         -2.4786281764        7.5605565044       -4.4115675269
 H         -1.0536211689        7.2134629135       -6.4324985788
 H         -2.4554714211        6.1385099399       -6.4349662001
 H          8.2128814086       -1.3998249436        0.3324383446
 H          6.8208904972       -2.4775200508        0.1923833468
 H          8.2328595381       -2.6525915672       -1.8316242809
 H          8.1075638224       -0.9095083998       -2.0891732727
 H          0.9348574256       -6.0402648514        2.4298919479
 H          1.9448842315       -5.6568272869        1.0329594304
 H         -0.5065752969       -5.6469706766       -2.2922195508
 H         -1.5153425928       -6.0140490895       -0.8908606240
 H         -5.0218110325        1.7987276333        3.2535493492
 H         -4.4982704547        2.5864771225        4.7452389304
 H         -3.9008222530        5.2647887219        1.6516926688
 H         -4.4472410521        4.4803505064        0.1668039230
 H         -3.3637075721        5.2503524634       -4.1907446553
 H         -2.5777752773        5.7580221680       -2.6927619417
 H          0.3728548981        5.3806202151       -5.5531958739
 H         -0.4060408073        4.8933578890       -7.0617441395
 H          6.8223251796        0.5250768561       -0.3848824707
 H          6.1185573162       -0.2533290641        1.0344241633
 H          5.7816530922       -2.8937746351       -2.1263977301
 H          6.4993127729       -2.1146854563       -3.5394187061
 H         -1.7333131023       -0.5396386794        2.7509674232
 H          0.0313666260        0.0834210014       -2.1337983055
 H          0.4524764475        0.5841456377        0.3617144058
 H          1.8282000426        1.7062603233       -4.5437805924
 H          2.2979876891       -1.9641457566        2.5473449344
 H         -3.2378139700       -2.3914152207       -0.9421633801
 H          1.4938494106        2.0782225718        3.7327595479
 H         -3.9353805728        1.6521893782       -2.2367403909
 H         -0.0965979856        4.8062023337        0.0774361409
 H         -1.3963096161       -0.9116781939       -5.5350412210
 H          3.7461088225        3.0597809827       -0.7581608526
 H          2.2393222194       -2.5073499791       -3.9137998296
 H         -1.3297001918       -2.8422453062        2.1478360461
 H          0.4809740381       -2.1492680544       -1.4662307273
 H         -0.7197398045        2.9724219631        3.5780127450
 H         -0.2752542827        2.3734082745       -2.6459355378
 H         -1.7202213880        1.4670688221        0.6391611167
 H         -1.7515054214        1.4492558966       -5.6284248960
 H          2.5541738273       -0.4389336668       -0.0522957635
 H          3.9178960292        0.8411239745       -3.6905131682
 H         -1.0159768784       -4.9256903016        1.3383045243
 H          0.9931834770       -4.2539231223       -0.8674241756
 H         -2.7848330103        3.8847666559        3.4716700299
 H         -3.8036100762        2.2522879326        1.0996732076
 H         -0.5061229831        4.5272851205       -3.3537978562
 H         -2.1581517494        3.6637296557       -5.7733377309
 H          4.5105772886       -1.4863131578       -0.4180173337
 H          5.8059572315        0.1219093093       -2.6736592969
 C         -2.1357382616       -7.6227453358       11.5582311875
 C         -1.2918074313       -7.1008360449       12.7227805411
 O         -3.0197309783       -6.6163691239       11.0929700664
 C         -2.2994126028       -5.4580854920       10.7068164939
 C         -1.4548920105       -4.9364484320       11.8712250233
 O         -0.5708982075       -5.9427678265       12.3356668960
 H         -2.7624696777       -8.4569317375       11.8736769825
 H         -1.9467438692       -6.8589132995       13.5722654482
 H         -1.6446005710       -5.6988119246        9.8567400421
 H         -2.1152245620       -4.6201619135       12.6916367290
 H         -0.5468223134       -7.8368095733       13.0253654754
 H         -3.0445877300       -4.7218479309       10.4050718167
 H         -0.8284811724       -4.1020450003       11.5554171779
 H         -1.4750481916       -7.9389310621       10.7380511050