142
-211.12658665
 C          5.6410815965       -5.6445888153        3.3965441154
 C          5.2245267780       -6.2549558809        2.0623284408
 C         -5.1753028255        1.1750248822        5.0901751965
 C         -5.7068914088        0.5176412892        3.8205827563
 C         -5.3703643533        1.3286878189       -3.9497320086
 C         -5.2458825637        0.5322656356       -5.2446207272
 C          7.3547984130        1.2530164594       -2.0377028554
 C          7.4401328176        0.4829456890       -3.3516894150
 C          5.3581035006       -4.1467743066        3.4053569907
 C          3.7478811253       -5.9894440732        1.7951557675
 C         -3.6879357489        0.8853711153        5.2578867189
 C         -4.9295067874        1.0058447537        2.6033500971
 C         -5.0116210830        0.4577383216       -2.7508009586
 C         -3.8353864226       -0.0273232524       -5.3925151264
 C          5.9445734019        1.7901468521       -1.8250514379
 C          6.4257750635       -0.6549088224       -3.3663080907
 C          1.0815434037       -0.0339991433        3.7487322736
 C         -0.2894057352       -2.3278703842       -0.3021424815
 C          0.5637968124        0.7886065694        0.1886199921
 C          0.6288427559       -1.8890506880       -3.8583118698
 C          3.2964170976        0.3597795261        2.8882715349
 C         -0.7661568318       -3.9352662605        1.4248538455
 C          1.7002234129        2.1701680859        2.9999785771
 C         -2.5729906379       -2.7594336835        0.3290051637
 C         -1.1636913225        2.3060272379       -0.5276051352
 C         -0.0561124689       -4.0689296522       -3.0976578907
 C          1.0000646747        2.3314625425       -1.6066999054
 C          2.2632185842       -3.4061716576       -2.9486325846
 C          2.6432361081       -1.9319851788        3.5709386101
 C          1.5882935067       -3.5021892459        0.7801919374
 C         -0.6235163351        1.7586022959        3.7094213587
 C         -2.0826308399       -1.1011124876       -1.4498707318
 C         -1.6190240238        0.7120655462        1.3174152641
 C         -1.7745977642       -2.4698330653       -3.8520762350
 C          2.7919144172        0.7858967098       -0.8673641967
 C          2.9584693899       -1.1272491780       -3.6413385687
 C          2.3435273483       -0.5141905669        3.4185275054
 C          0.1604023950       -3.2563101162        0.6316441796
 C          0.7452948782        1.3003587532        3.5248075081
 C         -1.6494512457       -2.0711769123       -0.4567902919
 C         -0.7351136067        1.2763611967        0.3091987350
 C         -0.3795550881       -2.8267684418       -3.6419209026
 C          1.4377870551        1.3116991949       -0.7596821626
 C          1.9436001487       -2.1626587595       -3.5001227046
 C          2.9610070809        1.6851666520        2.7003722459
 C         -2.1127292895       -3.6734870384        1.2588402285
 C         -0.2905336001        2.8072234210       -1.4754813226
 C          1.2609757759       -4.3379725267       -2.7693824038
 C          3.8786040653       -3.8658529161        3.1453133977
 C          3.4510388992       -4.4884253819        1.7915424627
 C         -2.8934696161        1.3853041077        4.0541807503
 C         -3.4401780513        0.7119140832        2.7520479026
 C         -3.5948809031       -0.0910154600       -2.8834371021
 C         -3.4699242561       -0.9167305090       -4.2069379071
 C          4.9196824579        0.6539114860       -1.8269780744
 C          5.0072344916       -0.1240998557       -3.1649248705
 Br         4.2599015826        2.8802128028        1.9683124566
 Br        -3.3802956789       -4.5966466686        2.3509934143
 Br        -0.8962572542        4.1870939876       -2.6505023338
 Br         1.6928533180       -6.0360273217       -2.0067856928
 N          3.6708023286       -2.4524969710        3.0538961363
 N          2.0432853309       -4.2929102031        1.6507598804
 N         -1.5289282843        0.9909339016        4.1488445680
 N         -3.2914153034       -0.9692667622       -1.7993185803
 N         -2.7101703211        1.2571967835        1.6523423698
 N         -2.1089974605       -1.3267586222       -4.2813378088
 N          3.6072551559        1.2092539684       -1.7314067866
 N          4.0885964324       -1.2193748933       -3.0857675632
 H          5.0856674707       -6.1242244860        4.2055536575
 H          6.7048485255       -5.8146601915        3.5708992216
 H          5.4019604478       -7.3315191480        2.0700356757
 H          5.8234069150       -5.8203181188        1.2589740753
 H         -5.3312600025        2.2548670892        5.0346245725
 H         -5.7175942965        0.8002374012        5.9596551274
 H         -5.6077487442       -0.5670727030        3.9031624953
 H         -6.7652933468        0.7507512549        3.6938101558
 H         -4.6995199161        2.1899680107       -3.9862005603
 H         -6.3900023152        1.7003961763       -3.8372013972
 H         -5.4740798792        1.1709130126       -6.0994712133
 H         -5.9640345546       -0.2909067834       -5.2366905394
 H          8.0600709197        2.0854438725       -2.0442380879
 H          7.6206414994        0.5928268252       -1.2092231876
 H          8.4443127995        0.0766324179       -3.4838003251
 H          7.2381039890        1.1602511145       -4.1844751036
 H          5.6314836697       -3.7115908403        4.3688285797
 H          5.9440657143       -3.6472893376        2.6319409181
 H          3.4520542083       -6.4053612990        0.8301251305
 H          3.1336347429       -6.4581855592        2.5654718834
 H         -3.5202406808       -0.1879803068        5.3604022374
 H         -3.3030204371        1.3743656987        6.1552032109
 H         -5.0592373797        2.0816451129        2.4749059748
 H         -5.2901102886        0.5117287712        1.6994504821
 H         -5.7030187215       -0.3825425501       -2.6696444555
 H         -5.0738099101        1.0364432749       -1.8275693104
 H         -3.1099371848        0.7857656223       -5.4505226094
 H         -3.7544672754       -0.6177190357       -6.3074289518
 H          5.6821646664        2.4898839901       -2.6200389395
 H          5.8759993339        2.3208063070       -0.8734933797
 H          6.6444539461       -1.3666852352       -2.5684806969
 H          6.4664031181       -1.1909967146       -4.3167552688
 H          0.3270004952       -0.6907824104        4.1531939118
 H          0.4230718137       -1.8018943521       -0.9217258683
 H          0.8965561068       -0.0012209868        0.8470705354
 H          0.3562534333       -0.9335014352       -4.2787310363
 H          4.2726393356       -0.0216594772        2.6351945004
 H         -0.4090717660       -4.6526415439        2.1460627505
 H          1.4542925411        3.2058830063        2.8199542478
 H         -3.6240941817       -2.5583648847        0.1982264186
 H         -2.1682693561        2.6826313042       -0.4220393207
 H         -0.8259108372       -4.8054498526       -2.9227900625
 H          1.6816713547        2.7271746496       -2.3422202799
 H          3.2852497800       -3.6096734287       -2.6719064022
 H          1.9032080786       -2.5189216425        4.1324389806
 H          2.2392206345       -2.9497331456        0.0838768005
 H         -0.8330879256        2.7895707322        3.3888311639
 H         -1.2784692900       -0.4886614875       -1.8838272293
 H         -1.2666758944       -0.2240132292        1.7754360308
 H         -2.5160190098       -3.2270956694       -3.5582339449
 H          3.0530980511       -0.0020382448       -0.1430080614
 H          2.6606520650       -0.2464475646       -4.2268446806
 H          3.2508829167       -4.3208569996        3.9301657162
 H          4.0181504111       -3.9836416365        0.9895058419
 H         -3.0055533930        2.4769142152        3.9337100190
 H         -3.2629300956       -0.3708387772        2.8597543069
 H         -2.8622122370        0.7295942928       -2.9549458404
 H         -4.1609775640       -1.7738314278       -4.1277976227
 H          5.1261362950       -0.0547093186       -1.0054018308
 H          4.7354917319        0.5770574383       -3.9722830902
 C         -6.8936561231       11.1040757911       -0.3821590021
 C         -6.6741349666       12.5357382996        0.1107707916
 O         -5.8277615548       10.2654249831        0.0309660773
 C         -5.6887608789       10.2916098668        1.4414422269
 C         -5.4688093915       11.7233700648        1.9340328339
 O         -6.5354996088       12.5613507049        1.5217942074
 H         -6.9078957020       11.0643750640       -1.4714100642
 H         -5.7682774091       12.9500990669       -0.3548816469
 H         -6.5946022110        9.8776109981        1.9078089641
 H         -4.5212888270       12.1093482830        1.5309655280
 H         -7.5332492497       13.1648133088       -0.1225295036
 H         -4.8295597222        9.6625372001        1.6745323550
 H         -5.4532196992       11.7633409727        3.0233342937
 H         -7.8416835846       10.7181714000        0.0198609301