142
-211.12926199
 C          1.9712370777       -6.7801174506        2.5867229144
 C          1.3192623543       -6.8847244253        1.2119198315
 C         -3.3607334541        4.6054340646        5.4629562838
 C         -4.0916389475        4.5437259763        4.1255782505
 C         -3.2242572691        5.9371047862       -3.3669974682
 C         -3.5151265373        5.3523229312       -4.7454029806
 C          7.4501804392       -1.3384788587       -2.0569606278
 C          7.1262786742       -1.8300243134       -3.4640174709
 C          2.5601575309       -5.3888617959        2.7894295648
 C          0.2400297720       -5.8204399209        1.0551154841
 C         -2.2942827256        3.5186346508        5.5384927365
 C         -3.1049967987        4.6833572148        2.9717563124
 C         -3.4093796886        4.8762936004       -2.2878026771
 C         -2.6140259720        4.1529039383       -5.0166246802
 C          6.5809678030       -0.1386786760       -1.7003877152
 C          5.6491139615       -2.1901192152       -3.5727142298
 C          1.2499034096        0.3244066155        3.7934209463
 C         -1.0297933071       -0.2951030125       -0.3784579353
 C          1.4669339038        1.7800225198        0.3803517265
 C          0.1411106217        0.0315233286       -3.8882797629
 C          3.3480105178       -0.4714966807        2.9185090556
 C         -2.3581818264       -1.5698861987        1.1720617373
 C          3.0147983730        1.8898702203        3.3074175344
 C         -3.1870492736        0.5295419885        0.3046892127
 C          0.9343981012        4.0920586990       -0.0332713159
 C         -1.6307630646       -1.5222114513       -3.3894459787
 C          2.8048956388        3.0552989627       -1.1617238612
 C          0.6752870007       -2.2331340679       -3.2660863055
 C          1.5111879798       -2.0829832470        3.3368357199
 C         -0.1455986630       -2.4365266539        0.4656348365
 C          0.8233724735        2.7496114759        4.0365514090
 C         -1.8197536069        1.8470776573       -1.2909896892
 C         -0.4455903005        2.7802934792        1.5567904733
 C         -2.2014917093        0.8291566190       -3.8536391103
 C          3.3689978572        0.6791406242       -0.7370035863
 C          2.5096162124       -0.6220514298       -3.6953381722
 C          2.0497706159       -0.7293563771        3.3668793061
 C         -1.1925125274       -1.4248911368        0.4176854469
 C          1.7167516695        1.6372965437        3.7492993789
 C         -2.0174826736        0.6850096372       -0.4384596045
 C          0.6599325181        2.8899956816        0.6178226778
 C         -1.2194470539       -0.2398824498       -3.7506920472
 C          2.5405051218        1.8537318947       -0.5018919496
 C          1.0912986896       -0.9506040646       -3.6336030861
 C          3.8087504860        0.8293478043        2.9078567056
 C         -3.3309783229       -0.5912821759        1.1014509895
 C          1.9971458038        4.1490709519       -0.9161123253
 C         -0.6752527577       -2.4967209528       -3.1618876211
 C          1.4884067133       -4.3098473176        2.6385599644
 C          0.8210240353       -4.4176660721        1.2429279277
 C         -1.2873634920        3.6577491184        4.3996958461
 C         -2.0396643115        3.5933919947        3.0291697893
 C         -2.5043596792        3.6749457781       -2.5411264017
 C         -2.8037110145        3.0732705139       -3.9544239404
 C          5.0948782498       -0.4897775427       -1.7950164289
 C          4.7648666792       -0.9935114210       -3.2239177571
 Br         5.5812121830        1.1855462123        2.2886823822
 Br        -4.9197676018       -0.7844521276        2.1453311113
 Br         2.3497533312        5.7888613920       -1.8317972495
 Br        -1.2468184696       -4.2475104869       -2.6517303885
 N          2.0988422819       -3.0179612450        2.7246295560
 N         -0.2388958839       -3.4615639591        1.1946956417
 N         -0.3768416682        2.5635103823        4.3933260982
 N         -2.7544549957        2.6489109964       -1.5804542994
 N         -1.0685524029        3.7878637602        2.0007237024
 N         -1.8655066131        2.0174692828       -4.1320017277
 N          4.3219472568        0.6883797283       -1.5629847543
 N          3.3915434887       -1.3971819695       -3.2308329444
 H          1.2241110054       -6.9752192225        3.3591964513
 H          2.7610703846       -7.5266770112        2.6853195518
 H          0.8728843263       -7.8717467059        1.0821334383
 H          2.0770504904       -6.7523402735        0.4365529922
 H         -2.8900785840        5.5847224974        5.5765112458
 H         -4.0695329440        4.4749387254        6.2822271291
 H         -4.6159087727        3.5891725305        4.0410058138
 H         -4.8333008016        5.3419672339        4.0680750381
 H         -2.1973091142        6.3082760042       -3.3384492431
 H         -3.8919243272        6.7771216810       -3.1690576048
 H         -3.3520355224        6.1092730934       -5.5141825241
 H         -4.5606965474        5.0398199070       -4.7957849424
 H          8.5016084917       -1.0545403482       -1.9912252145
 H          7.2726883802       -2.1422741325       -1.3391114295
 H          7.7321543679       -2.7053083103       -3.7042832205
 H          7.3637511561       -1.0465230057       -4.1870590717
 H          3.0034512495       -5.3029240945        3.7836540185
 H          3.3440197661       -5.1999703837        2.0539605909
 H         -0.2149726989       -5.8798040918        0.0646125702
 H         -0.5458456139       -5.9698412303        1.7969297302
 H         -2.7546005303        2.5314053424        5.4733199173
 H         -1.7561857791        3.5781829559        6.4867761862
 H         -2.6092198223        5.6546346172        3.0100788197
 H         -3.6256156594        4.6069176656        2.0155541426
 H         -4.4444721345        4.5315872832       -2.2663268703
 H         -3.1694844868        5.2878622835       -1.3058125917
 H         -1.5664833225        4.4585132725       -5.0151851087
 H         -2.8383392331        3.7211958797       -5.9942045122
 H          6.7815479211        0.6897526164       -2.3815066850
 H          6.7944873406        0.2010721647       -0.6851309984
 H          5.4082820939       -3.0065663552       -2.8897786010
 H          5.4092677792       -2.5171265265       -4.5865765342
 H          0.2418535175        0.1513959950        4.1370832962
 H         -0.1299262854       -0.1768802814       -0.9652672665
 H          1.2584966774        0.8532993792        0.8960067090
 H          0.4377520872        1.0309153513       -4.1665512565
 H          3.9608640514       -1.2950534788        2.5887218369
 H         -2.4723677119       -2.4432924693        1.7931144187
 H          3.3902393342        2.9012783152        3.2667737512
 H         -3.9486887296        1.2903829428        0.2468661881
 H          0.3078847877        4.9476163373        0.1612872694
 H         -2.6807229009       -1.7473979837       -3.2779572834
 H          3.6370057906        3.1025620227       -1.8455015922
 H          1.4195552550       -2.9881591227       -3.0697819781
 H          0.5507245617       -2.2262171928        3.8509580200
 H          0.7279709430       -2.2454839455       -0.1777746900
 H          1.2374074889        3.7549632591        3.8707301889
 H         -0.7970826881        1.9765409092       -1.6746232250
 H         -0.6985891742        1.7543223401        1.8621890830
 H         -3.2400415263        0.5523592635       -3.6201498784
 H          3.1063455264       -0.2127381452       -0.1459937812
 H          2.7550702451        0.3524777077       -4.1395776981
 H          0.6948604380       -4.4382111526        3.3940077025
 H          1.5932971403       -4.2129974382        0.4804906802
 H         -0.7700779316        4.6317499733        4.4469806689
 H         -2.4984960991        2.5927352549        2.9689588774
 H         -1.4439132402        3.9764278617       -2.5457769037
 H         -3.8456801794        2.7090404685       -3.9439443472
 H          4.8409920958       -1.2948052866       -1.0828875624
 H          4.9478988316       -0.1563911698       -3.9187074618
 C         -6.9534279028       -6.9850719685       -0.2783993951
 C         -6.3595423773       -7.2684385427        1.1028229631
 O         -6.8294962884       -5.6099945503       -0.6010615711
 C         -5.4712343241       -5.2069558162       -0.5499272602
 C         -4.8733917576       -5.4938598095        0.8285114790
 O         -5.0006517887       -6.8680183777        1.1521933415
 H         -8.0203450122       -7.2077575830       -0.2977626512
 H         -6.9316542263       -6.7230000649        1.8674426891
 H         -4.8980487742       -5.7461014318       -1.3178144181
 H         -5.3915002218       -4.8897636709        1.5873344234
 H         -6.3711143965       -8.3365222217        1.3204062761
 H         -5.4624471797       -4.1377410041       -0.7620654094
 H         -3.8058570928       -5.2761495031        0.8370839402
 H         -6.4297188170       -7.5881097162       -1.0343401529