142
-211.12757667
 C          2.6808574590       -7.2527077995        3.0168437296
 C          1.8675125852       -7.4335698961        1.7394026501
 C         -3.3044820243        3.9793353368        5.0782365006
 C         -4.0762823704        3.8788478704        3.7663185962
 C         -4.4534251380        4.5942412057       -2.7392701331
 C         -4.6249173259        3.8943152740       -4.0831592057
 C          7.5424140901        0.0884526199       -1.7462415362
 C          7.3756044129       -0.8322442353       -2.9499698447
 C          3.2167627867       -5.8286262976        3.1053298737
 C          0.7228071850       -6.4291285605        1.6920675358
 C         -2.1886778589        2.9413753913        5.1231565230
 C         -3.1352025424        4.0651679815        2.5801054761
 C         -4.3722352552        3.5694171955       -1.6136126578
 C         -3.4766143039        2.9217003844       -4.3248697056
 C          6.4472951257        1.1472119814       -1.7327897580
 C          6.0016210415       -1.4902702557       -2.9208391567
 C          1.5161245408       -0.1130108598        3.6380093820
 C         -0.9896595201       -0.9559041744        0.4214321143
 C          1.0697221975        2.7718015969       -0.2236400276
 C          0.1273547069       -0.4702287588       -3.2995454226
 C          3.7111806152       -0.8496093390        2.9727818525
 C         -2.0018665412       -2.2777126223        2.1614663995
 C          3.1918328841        1.5106616533        3.0421953826
 C         -3.1260721203       -0.3101612594        1.3243143708
 C          0.1697261702        4.6730358854       -1.3965913857
 C         -1.2434346148       -2.3512060200       -2.6802424732
 C          2.1550810292        3.5686712595       -2.2193162299
 C          1.1645394829       -2.5586947764       -2.6991336874
 C          1.9710760537       -2.5273406990        3.5272105707
 C          0.1502148730       -3.0116049704        1.1862828222
 C          0.9190800649        2.2859188438        3.6138971707
 C         -2.1333778810        1.0136581634       -0.5178592031
 C         -0.9686548185        3.8805444344        0.6499518870
 C         -2.3250859758       -0.1823270037       -3.1224669912
 C          3.1094286334        1.6251271031       -1.0201741421
 C          2.5872249952       -0.6151199088       -3.2893261011
 C          2.4118241855       -1.1458741396        3.3918804119
 C         -0.9559643386       -2.0657741760        1.2610260449
 C          1.8909295107        1.2153930637        3.4480611074
 C         -2.0802653186       -0.0901053843        0.4292387555
 C          0.1051852882        3.7735322139       -0.3347125169
 C         -1.1335618125       -1.0158125098       -3.0652587286
 C          2.0974307594        2.6658669561       -1.1532323199
 C          1.2764965870       -1.2263314267       -3.1040348372
 C          4.0787542750        0.4718297817        2.8190279134
 C         -3.0562933410       -1.3869201416        2.1883438737
 C          1.1899058735        4.5485131648       -2.3243157758
 C         -0.0920564804       -3.0996707451       -2.5127803610
 C          2.0825477504       -4.8072138345        3.0652040753
 C          1.2443687308       -4.9942059381        1.7678617216
 C         -1.2383447938        3.1026603235        3.9373254715
 C         -2.0356887339        3.0042994885        2.6068932245
 C         -3.2214683438        2.5924729141       -1.8378808356
 C         -3.3989653167        1.8771749595       -3.2128145097
 C          5.0562275701        0.5092270919       -1.6999818241
 C          4.8863353663       -0.4463474642       -2.9102439639
 Br         5.8631358805        0.8857047956        2.2660831244
 Br        -4.4679045562       -1.6467972408        3.4490406772
 Br         1.2565954578        5.7758176883       -3.7919350337
 Br        -0.2503029424       -4.9296726484       -1.9899339121
 N          2.6261383317       -3.4852055443        3.0273471241
 N          0.1389899012       -4.0950410292        1.8351093861
 N         -0.2779631935        2.0455074131        3.9320700337
 N         -3.2186649651        1.5977702894       -0.8079384670
 N         -1.0749170088        3.0040897702        1.5500774831
 N         -2.2471313595        1.0545642837       -3.3841899025
 N          4.0782686445        1.5413745401       -1.8241442647
 N          3.6256374995       -1.1133939958       -2.7726607898
 H          2.0483210995       -7.4579529226        3.8834759347
 H          3.5143937590       -7.9569352891        3.0337145733
 H          1.4626357606       -8.4456713862        1.6919890542
 H          2.5127781752       -7.2880788276        0.8704223589
 H         -2.8753762355        4.9800240663        5.1735268272
 H         -3.9801339669        3.8225339027        5.9203985931
 H         -4.5549190457        2.8998098786        3.7002631830
 H         -4.8586851567        4.6396168045        3.7347772253
 H         -3.5385797049        5.1907625342       -2.7579421405
 H         -5.2919276541        5.2689807092       -2.5583035068
 H         -4.6530869679        4.6310828610       -4.8876846850
 H         -5.5703002938        3.3473792378       -4.0915358083
 H          8.5165105233        0.5787927593       -1.7787049422
 H          7.4909833584       -0.4963863505       -0.8257849100
 H          8.1485402686       -1.6024695708       -2.9433848471
 H          7.4834047013       -0.2534854772       -3.8701672336
 H          3.7781456457       -5.6887435496        4.0313590973
 H          3.8894237268       -5.6265358082        2.2701546799
 H          0.1556799048       -6.5419295578        0.7662654649
 H          0.0416095424       -6.5911215363        2.5288281124
 H         -2.6075575455        1.9347661662        5.0918885391
 H         -1.6152256114        3.0393628527        6.0471502757
 H         -2.6862888379        5.0612318333        2.6245670635
 H         -3.6896639418        3.9746760540        1.6427962308
 H         -5.3004457057        2.9993848027       -1.5539352275
 H         -4.2237322101        4.0694062023       -0.6544361987
 H         -2.5266333997        3.4579214997       -4.3645238010
 H         -3.6100878028        2.4043171557       -5.2769890477
 H          6.5150073049        1.7735974043       -2.6237905600
 H          6.5542129233        1.7888995272       -0.8562780286
 H          5.8995298755       -2.1081050504       -2.0271184867
 H          5.8667920542       -2.1337262538       -3.7926039090
 H          0.5057481740       -0.3168675122        3.9544043483
 H         -0.1759785534       -0.7794532509       -0.2674095546
 H          0.9975338300        2.0872340882        0.6082729683
 H          0.1883864188        0.5618715141       -3.6072542572
 H          4.3974337259       -1.6583836830        2.7792867439
 H         -1.9627957885       -3.1357222226        2.8131194549
 H          3.5005993944        2.5352376450        2.8964793139
 H         -3.9686082494        0.3618477714        1.3260242838
 H         -0.5674088476        5.4555353069       -1.4964531550
 H         -2.2155458766       -2.7872071288       -2.5068741837
 H          2.9566283227        3.4799228716       -2.9346351066
 H          2.0616467985       -3.1371725124       -2.5464679297
 H          1.0234997783       -2.6736118077        4.0633525298
 H          0.9722212470       -2.7344283631        0.5083169274
 H          1.2829168148        3.3041502003        3.4090985548
 H         -1.1760973658        1.2876818824       -0.9787413098
 H         -1.6382196527        4.7400385283        0.5314858444
 H         -3.2764436674       -0.6709767501       -2.8812461252
 H          2.9776208715        0.9328611271       -0.1738573254
 H          2.6031199832        0.3106312999       -3.8805998409
 H          1.3971075015       -4.9455585266        3.9177377764
 H          1.9037995492       -4.7733065681        0.9110508515
 H         -0.7533794927        4.0972886818        3.9624420182
 H         -2.4832632572        2.0030581455        2.5817766749
 H         -2.2564918521        3.1230944632       -1.8811943604
 H         -4.3262751299        1.2822745279       -3.1676876284
 H          4.9230116609       -0.0802332870       -0.7761478779
 H          4.9203287803        0.1753939004       -3.8200000533
 C         -5.9328224115       -0.4247697418       -1.1992112871
 C         -6.1857617879       -1.5103457808       -0.1537397390
 O         -5.5432879772       -1.0120484176       -2.4344812398
 C         -6.5285683976       -1.9260598145       -2.8893986085
 C         -6.7860000698       -3.0062007345       -1.8373982603
 O         -7.1731105796       -2.4199434924       -0.6078768977
 H         -5.1115128579        0.2326590979       -0.9043574309
 H         -5.2499134669       -2.0536106805        0.0445263914
 H         -7.4619787931       -1.3834725927       -3.0957151792
 H         -5.8742992567       -3.6039020341       -1.6892864833
 H         -6.5711109075       -1.0822791194        0.7712600310
 H         -6.1410993155       -2.3613443797       -3.8111894155
 H         -7.6077770937       -3.6550544505       -2.1402582495
 H         -6.8524532686        0.1580730735       -1.3508668384