142
-211.12966892
 C          4.6419552737       -6.1628153278        3.3267546020
 C          3.8486126361       -6.6371721149        2.1135144426
 C         -3.2174573185        3.7016657523        6.0790710130
 C         -4.1142694938        3.2269369259        4.9401647272
 C         -4.8704153263        3.5993950687       -2.8684846787
 C         -5.1600270224        2.7550460827       -4.1054335525
 C          7.5141447398       -0.2527370511       -2.6771471501
 C          7.1623029969       -1.0286085181       -3.9423692653
 C          4.8316626690       -4.6511290345        3.2779751960
 C          2.4996179364       -5.9310715784        2.0516500625
 C         -1.8842211698        2.9627956564        6.0514740081
 C         -3.4213557409        3.4271310095        3.5969615587
 C         -4.5881134881        2.7023339621       -1.6688351813
 C         -3.9881425143        1.8256108711       -4.3997161286
 C          6.3856404607        0.7025459498       -2.3081100314
 C          5.8564645213       -1.7914652991       -3.7511793103
 C          2.0964755315        0.5857366702        3.9559365209
 C         -0.5251342455       -1.2526068938        0.3129642122
 C          1.3056163066        1.4561538316        0.4628065351
 C         -0.0498748374       -1.2063259168       -3.3428466310
 C          4.1718611875        0.2635197277        2.7767462918
 C         -1.1717279968       -2.5815934998        2.2130034812
 C          3.2273274434        2.4776032605        2.9843691394
 C         -2.7008890249       -0.9464522544        1.2989769412
 C          0.0397795072        3.4246854498       -0.1048535052
 C         -1.2154656030       -3.0776276240       -2.3731728032
 C          1.9312830119        2.7640462633       -1.4587734882
 C          1.1909432993       -3.1270431330       -2.5863522451
 C          2.9720763405       -1.7027327584        3.6922276429
 C          1.0652270068       -2.9155587891        1.1985552794
 C          1.0235605562        2.8144682556        4.0333929423
 C         -2.0386984323        0.4224287672       -0.6602694866
 C         -0.6029507457        2.0827697024        1.8796974042
 C         -2.4924812371       -1.0580314883       -2.9773977920
 C          3.2498122898        0.7469046640       -0.8766522524
 C          2.4084338796       -1.1702342909       -3.5001616752
 C          3.0919262705       -0.2648242575        3.4891325716
 C         -0.2269311381       -2.2448547153        1.2419576349
 C          2.1460224977        1.9537441750        3.6916999899
 C         -1.7545368248       -0.5988383034        0.3357144692
 C          0.2500932027        2.3253818330        0.7266635196
 C         -1.2428183124       -1.8027165372       -2.9369009992
 C          2.1520278956        1.6693073530       -0.6210471631
 C          1.1671859368       -1.8514912071       -3.1566753223
 C          4.2246288695        1.6234394838        2.5481978072
 C         -2.3879268129       -1.9259478860        2.2233201285
 C          0.8796312566        3.6177605115       -1.1861926111
 C          0.0004896732       -3.7190677924       -2.2165472302
 C          3.4852184138       -3.9303542443        3.2229190424
 C          2.6770129067       -4.4124856648        1.9909860737
 C         -1.1702481519        3.1706731834        4.7183785251
 C         -2.0916717848        2.6812456179        3.5527011068
 C         -3.4091046966        1.7763098950       -1.9481027032
 C         -3.7147571047        0.9064749915       -3.2124722884
 C          5.0723627515       -0.0547382865       -2.1011177964
 C          4.7152466964       -0.8424188858       -3.3878529010
 Br         5.6965392763        2.3474943466        1.5686496901
 Br        -3.6740377878       -2.3765579606        3.5624240778
 Br         0.5675112847        5.1057172633       -2.3431689451
 Br         0.0307918059       -5.4598962563       -1.4298376461
 N          3.7024285463       -2.5237489126        3.0703145474
 N          1.3920361943       -3.7915392039        2.0449144414
 N          0.0067100354        2.3729982548        4.6442830382
 N         -3.2000356685        0.8858077283       -0.8520638564
 N         -1.4075172713        2.9495769344        2.3282741038
 N         -2.5495634578        0.1201330396       -3.4371314066
 N          4.0236803959        0.8849475069       -1.8628809714
 N          3.5314298172       -1.5993740965       -3.1139785548
 H          4.1068490950       -6.4327732184        4.2398893071
 H          5.6177093733       -6.6509317994        3.3509871732
 H          3.6892419892       -7.7152123115        2.1672212629
 H          4.4123137603       -6.4248365705        1.2024445847
 H         -3.0397134759        4.7750112998        5.9801009407
 H         -3.7081191536        3.5281628257        7.0381243453
 H         -4.3440067810        2.1676031947        5.0751704742
 H         -5.0548860835        3.7798581689        4.9500549581
 H         -4.0037804181        4.2381161789       -3.0559889038
 H         -5.7225475249        4.2442018788       -2.6474537584
 H         -5.3322493280        3.4033406130       -4.9665794634
 H         -6.0583987841        2.1576136804       -3.9362922207
 H          8.4328569594        0.3159539629       -2.8287968827
 H          7.6823414517       -0.9515196882       -1.8547622840
 H          7.9611915780       -1.7311219678       -4.1856481562
 H          7.0580700080       -0.3335497682       -4.7784792497
 H          5.3763956865       -4.3057434312        4.1590735223
 H          5.4081756227       -4.3712611357        2.3946225489
 H          1.9390773016       -6.2520412188        1.1716158814
 H          1.9055865350       -6.1716726886        2.9346496207
 H         -2.0412629081        1.8926581347        6.1958880756
 H         -1.2340655266        3.3197477862        6.8528868611
 H         -3.2298036048        4.4869827311        3.4216177296
 H         -4.0512344373        3.0586762360        2.7852956908
 H         -5.4608542321        2.0886810429       -1.4411965447
 H         -4.3552359798        3.3042250800       -0.7884381952
 H         -3.0853043129        2.4034057882       -4.6062273709
 H         -4.2009443805        1.2083168914       -5.2748366046
 H          6.2367538691        1.4371112690       -3.1010111701
 H          6.6256030020        1.2424201476       -1.3901726487
 H          5.9617134883       -2.5257885243       -2.9507422813
 H          5.5886292132       -2.3255386691       -4.6651808969
 H          1.2499270482        0.2006669982        4.5030394643
 H          0.2012985408       -0.9894533043       -0.4428329091
 H          1.4724469263        0.6111700137        1.1157088889
 H         -0.0935266248       -0.2185577797       -3.7748354821
 H          4.9392737642       -0.4039724439        2.4188706605
 H         -0.9315402253       -3.3497488228        2.9302723231
 H          3.2789008048        3.5346318060        2.7707935216
 H         -3.6522742574       -0.4392653468        1.3041277618
 H         -0.7767029465        4.0950300602        0.1103238552
 H         -2.1308313899       -3.5518499411       -2.0525330122
 H          2.5900214015        2.9200181091       -2.2978095030
 H          2.1395626403       -3.6197970740       -2.4455115244
 H          2.1862048196       -2.0228013522        4.3902898316
 H          1.7322073107       -2.6070088223        0.3777281470
 H          1.0896541167        3.8538028905        3.6794385129
 H         -1.1692681884        0.7597503481       -1.2438090656
 H         -0.4906142396        1.0916137773        2.3434476989
 H         -3.3663911160       -1.5578212632       -2.5346814403
 H          3.3573782360       -0.0744208413       -0.1502002353
 H          2.2993403149       -0.2453617243       -4.0832972348
 H          2.8842778326       -4.1556376288        4.1202383173
 H          3.2349431662       -4.1238466776        1.0825881636
 H         -0.9604220631        4.2407831007        4.5464383903
 H         -2.2432287176        1.5998530335        3.7040740031
 H         -2.4991242417        2.3553372417       -2.1768331923
 H         -4.6001484423        0.2897263346       -2.9819942701
 H          5.1699716690       -0.7794758752       -1.2734550064
 H          4.5504002221       -0.1040709447       -4.1907925377
 C         -8.4030732864        0.0985723869       -4.9095706998
 C         -8.9821642365        1.0392730398       -5.9678208392
 O         -8.0620642977        0.8182896234       -3.7364060013
 C         -9.1940019159        1.5051774424       -3.2265866031
 C         -9.7728574214        2.4456809970       -4.2848812056
 O        -10.1125930314        1.7259237966       -5.4583825949
 H         -7.4830347682       -0.3666085516       -5.2637518133
 H         -8.2162640070        1.7667331788       -6.2727514718
 H         -9.9588238576        0.7757748505       -2.9242506575
 H         -9.0349220748        3.2226445974       -4.5309220852
 H         -9.3300621400        0.4800372401       -6.8364214721
 H         -8.8488209693        2.0631482799       -2.3563577184
 H        -10.6953116291        2.9070932042       -3.9323265939
 H         -9.1423982259       -0.6765598240       -4.6619993212