142
-211.12932534
 C          0.3625775760       -7.0336670814        1.5221171063
 C          0.0229357524       -6.9450535082        0.0377533593
 C         -4.4871196913        4.4970888663        4.7035210265
 C         -4.9787909888        4.6145244651        3.2643691201
 C         -2.5086533561        6.6066560447       -3.9402409778
 C         -2.5714573885        6.1730015260       -5.4013400045
 C          6.9926179572       -1.8017124756       -1.3150029462
 C          6.9344087164       -2.1360488858       -2.8020518305
 C          1.0026004670       -5.7357183830        2.0005622370
 C         -0.9082302060       -5.7675952740       -0.2238553018
 C         -3.5440268523        3.3081769660        4.8493458542
 C         -3.7994258517        4.7499439864        2.3077661623
 C         -2.9907560696        5.4829026597       -3.0296125316
 C         -1.7393477848        4.9144984615       -5.6205282039
 C          6.1595743614       -0.5611922143       -1.0159681609
 C          5.4898709700       -2.3431344620       -3.2426519659
 C         -0.0135771029       -0.0563554736        3.3928030054
 C         -1.4428563979       -0.0427976815       -1.2595368017
 C          0.9095097437        1.6420684029        0.2532073641
 C          0.3694057240        0.4434187769       -4.4215771696
 C          2.1438362577       -0.9660570689        2.8280068685
 C         -3.1452759941       -1.3229713259       -0.1385672341
 C          1.9283405401        1.3686940772        3.4114136436
 C         -3.6220642384        0.9198602932       -0.9060937313
 C          0.6362465672        4.0183930765       -0.0269592621
 C         -1.5934288368       -0.9520518556       -4.4503920531
 C          2.5964489406        2.9089231508       -0.9062837074
 C          0.5687850377       -1.9119029845       -3.9588092480
 C          0.1412134443       -2.4207247233        2.7117646637
 C         -0.9090278603       -2.3279841419       -0.5013647949
 C         -0.2867449415        2.3654406233        3.8230209773
 C         -1.8723841511        2.2376603509       -2.0695453884
 C         -1.1010284301        2.7176027779        1.1730130849
 C         -1.8526114010        1.4797025218       -4.7536939151
 C          2.8960026128        0.4658703102       -0.6131021819
 C          2.5811088400       -0.4687153302       -3.8352795785
 C          0.7676763598       -1.1370539743        3.0005591067
 C         -1.8453982043       -1.2205696026       -0.6374363522
 C          0.5543828887        1.2029904160        3.5809040208
 C         -2.3211808798        1.0293319575       -1.3958825572
 C          0.1590981162        2.7984674645        0.4508143705
 C         -1.0086950796        0.3068319984       -4.5816040530
 C          2.1277024424        1.6878955805       -0.4180317739
 C          1.1592274076       -0.6526472767       -4.0944475399
 C          2.6984621411        0.2783436839        3.0473830899
 C         -4.0063945893       -0.2519434039       -0.2808279733
 C          1.8418647531        4.0483716707       -0.7032776852
 C         -0.7919422160       -2.0393413314       -4.1504185352
 C          0.0800887518       -4.5444434170        1.7454498226
 C         -0.2747566762       -4.4541790014        0.2388274522
 C         -2.3478844136        3.4390721107        3.9100955457
 C         -2.8545381301        3.5593608462        2.4347894761
 C         -2.1549859684        4.2229857231       -3.2303528548
 C         -2.2243683878        3.7751057770       -4.7280387096
 C          4.7040999114       -0.7622664215       -1.4433050188
 C          4.6460586739       -1.1020835969       -2.9547463435
 Br         4.5782973303        0.5168987158        2.8050300886
 Br        -5.7799286455       -0.3874911447        0.4169919942
 Br         2.4762704574        5.7162613917       -1.3861775256
 Br        -1.6030450319       -3.7586803113       -3.9600474019
 N          0.7575745159       -3.3347232559        2.0972233753
 N         -1.2243176748       -3.3986787529        0.0855672472
 N         -1.5423209299        2.2657576539        3.9487252901
 N         -2.6671288426        3.1492519487       -2.4406752896
 N         -1.7065061584        3.7406483996        1.6051810835
 N         -1.3652826656        2.6451008347       -4.8362446282
 N          3.9874664869        0.4570100966       -1.2448983406
 N          3.2780442560       -1.3656612148       -3.2838915464
 H         -0.5494015700       -7.2198121186        2.0934645539
 H          1.0480817373       -7.8635735317        1.7010544208
 H         -0.4587678960       -7.8663584726       -0.2936769736
 H          0.9410767479       -6.8180356763       -0.5399709073
 H         -3.9628777364        5.4131028562        4.9855489456
 H         -5.3349153198        4.3722112229        5.3790093200
 H         -5.5569442167        3.7251946547        3.0035136484
 H         -5.6314938793        5.4829102092        3.1622160307
 H         -1.4796471357        6.8664875477       -3.6816813458
 H         -3.1286773436        7.4911727192       -3.7860661199
 H         -2.1974732487        6.9713217502       -6.0443378916
 H         -3.6094068190        5.9746413988       -5.6784811052
 H          8.0251694268       -1.6246992127       -1.0101517687
 H          6.6099531931       -2.6447402786       -0.7355812355
 H          7.5098562453       -3.0406066341       -3.0059308095
 H          7.3759333623       -1.3186520809       -3.3765065807
 H          1.2155952616       -5.7851577644        3.0702104999
 H          1.9424816609       -5.5619706245        1.4738126022
 H         -1.1375366344       -5.6887537154       -1.2882938459
 H         -1.8483286861       -5.9023017958        0.3133092740
 H         -4.0666767963        2.3792842036        4.6154488486
 H         -3.1743343485        3.2386265913        5.8744739873
 H         -3.2387375490        5.6613498844        2.5214719780
 H         -4.1508158244        4.8035458498        1.2757694842
 H         -4.0344209519        5.2436315612       -3.2399088441
 H         -2.9174985916        5.7834389817       -1.9828997773
 H         -0.6903233811        5.1096385453       -5.3920604095
 H         -1.8036778164        4.5916074630       -6.6616679886
 H          6.5584514220        0.3011017660       -1.5524744883
 H          6.1815862061       -0.3329509841        0.0513209591
 H          5.0505033700       -3.1892336017       -2.7115482735
 H          5.4435156969       -2.5560970728       -4.3126382072
 H         -1.0790536927       -0.1620978860        3.5264020507
 H         -0.4389099426        0.0410082557       -1.6509423724
 H          0.5425959212        0.6999746976        0.6352512632
 H          0.8013500263        1.4266997068       -4.5254331594
 H          2.7410834819       -1.8108878742        2.5245724764
 H         -3.4478442726       -2.2386136866        0.3433505397
 H          2.3824424408        2.3380720547        3.5517629001
 H         -4.2963113118        1.7532833724       -1.0207961218
 H          0.0513914621        4.9092076808        0.1363639548
 H         -2.6594803794       -1.0736360358       -4.5701218897
 H          3.5397930400        2.9345883858       -1.4274971770
 H          1.1891148385       -2.7563439411       -3.7045505601
 H         -0.9061376815       -2.5240303838        3.0285811678
 H          0.0867450618       -2.1649908875       -0.9434708846
 H          0.2280599897        3.3374344225        3.8327080800
 H         -0.7881587985        2.2988410024       -2.2449272852
 H         -1.4868292480        1.6990145769        1.3269894035
 H         -2.9371549478        1.2965351885       -4.7496095880
 H          2.4598871621       -0.4440919078       -0.1709731600
 H          2.9944803645        0.5099139264       -4.1160177751
 H         -0.8663427228       -4.6593314555        2.3006481852
 H          0.6564147397       -4.2546476044       -0.3203038957
 H         -1.7679886626        4.3510482865        4.1353568283
 H         -3.3776164366        2.6168221540        2.2038478519
 H         -1.0927015350        4.4176080576       -3.0091419521
 H         -3.2761198438        3.5221778133       -4.9482834827
 H          4.2497283997       -1.6009749909       -0.8866767241
 H          5.0363684298       -0.2284891203       -3.5039789927
 C          0.0946203071       -6.0017924606        7.7365135659
 C         -0.1518816776       -5.8742414474        6.2321355050
 O          0.5301738621       -7.3103921461        8.0613843513
 C          1.7023345242       -7.6409860003        7.3352704804
 C          1.4550938926       -7.5163892169        5.8311628382
 O          1.0179357945       -6.2065225907        5.5036596216
 H         -0.8259130111       -5.8379602106        8.2970029638
 H         -0.9713242926       -6.5446027585        5.9351492745
 H          2.5201248038       -6.9681426181        7.6313288164
 H          0.6919368994       -8.2448047068        5.5223478065
 H         -0.3964191831       -4.8457767396        5.9661976701
 H          1.9491280914       -8.6676162612        7.6056961434
 H          2.3750028186       -7.6797978133        5.2699313063
 H          0.8569036816       -5.2721762865        8.0466522196