142
-211.12682485
 C          3.2012215847       -6.3365929736        3.8159936336
 C          1.9324403066       -6.7898674497        3.1010939755
 C         -1.2547945532        5.4097919712        6.6300287583
 C         -2.5793601049        4.9985058279        5.9954430825
 C         -6.2312223658        4.3185923329       -0.8646602927
 C         -7.1021822454        3.3695794059       -1.6814885593
 C          4.5694172251       -2.0283147843       -4.2810781061
 C          3.6306643624       -2.8731388990       -5.1362743959
 C          3.6103223815       -4.9475253907        3.3399256227
 C          0.8051543033       -5.7915842193        3.3349651462
 C         -0.1736521589        4.3814161952        6.3180683271
 C         -2.4196332158        4.8362745331        4.4880282787
 C         -5.6292712712        3.5916406790        0.3325274487
 C         -6.2889336037        2.1660878054       -2.1441724072
 C          3.8379697645       -0.8066064330       -3.7384836552
 C          2.4125613965       -3.2977106043       -4.3241967463
 C          2.2566646155        0.8398110101        3.6171239313
 C         -1.7915035962       -0.8258754803        1.6760464664
 C          0.3862546626        1.4185698679        0.4251796437
 C         -2.6863253429       -1.4030764352       -1.9154606940
 C          3.6446465375       -0.1617565475        1.9228770599
 C         -1.8864559846       -1.6554207255        3.9340300675
 C          3.2417309174        2.2210040230        1.9074340516
 C         -3.3467961104        0.1419900142        3.2397267393
 C         -0.6417958595        3.5407212164       -0.0657852284
 C         -3.6318403016       -2.8361935620       -0.2262151146
 C          0.4652184265        2.2936753759       -1.8162029949
 C         -1.5333984113       -3.4179492511       -1.2740522726
 C          2.5693940156       -1.6034986375        3.6303284431
 C         -0.2980150820       -2.6768221910        2.3296805190
 C          1.6910235173        3.2461397260        3.5270070306
 C         -3.2637332477        0.9904777363        0.9115450031
 C         -0.7148614390        2.6514370052        2.2471279746
 C         -4.7491382801       -0.7006340240       -0.7438795139
 C          1.5457330457        0.1196628033       -1.3228286999
 C         -0.5124932480       -1.9110310590       -2.9580077199
 C          2.8419750732       -0.2909400292        3.0594938375
 C         -1.3385130338       -1.7095927788        2.6510963885
 C          2.4352614516        2.0951440873        3.0377630228
 C         -2.7928119270        0.0992255852        1.9608268978
 C         -0.3282027935        2.5364073362        0.8492850090
 C         -3.6969560523       -1.6744401373       -0.9942435973
 C          0.7918298726        1.2920589277       -0.9000137644
 C         -1.5983071751       -2.2575932472       -2.0502364479
 C          3.8381863657        1.0908453481        1.3765765652
 C         -2.8761085460       -0.7299229691        4.2040738476
 C         -0.2467308181        3.3954678182       -1.3828315568
 C         -2.5550094976       -3.6902677408       -0.3869934517
 C          2.4910948181       -3.9343219719        3.5760365657
 C          1.1992847719       -4.3944359826        2.8519985631
 C          0.0120587807        4.2196720689        4.8115353619
 C         -1.3476669043        3.8020939441        4.1592425021
 C         -4.8034369266        2.3897441925       -0.1149972195
 C         -5.6936185897        1.4157489907       -0.9555128325
 C          2.6181722557       -1.2185831647       -2.9121498263
 C          1.6647208607       -2.0818033870       -3.7787560273
 Br         4.9325000249        1.2701777495       -0.1794522200
 Br        -3.6129401208       -0.6443292984        5.9651225618
 Br        -0.7073341178        4.7581326968       -2.6409334324
 Br        -2.4680416698       -5.2747685061        0.6774174547
 N          2.8669322801       -2.6691236137        3.0217638547
 N          0.1609273056       -3.4748673665        3.1917262551
 N          0.9188613613        3.1603999170        4.5262946912
 N         -4.3314986093        1.6601477978        1.0178301185
 N         -1.1368263791        3.7332698683        2.7489734075
 N         -4.8229112627        0.3801928312       -1.3983413554
 N          1.9040684247       -0.0456795458       -2.5206857032
 N          0.5942313334       -2.5185627036       -2.9347587402
 H          3.0237707264       -6.3140440587        4.8935349774
 H          4.0124464676       -7.0404823856        3.6226153734
 H          1.6262018710       -7.7714694287        3.4659426051
 H          2.1265673067       -6.8742545258        2.0296501995
 H         -0.9516025642        6.3848963533        6.2418358284
 H         -1.3697677707        5.4982047427        7.7114919515
 H         -2.9124376850        4.0528072596        6.4289501902
 H         -3.3422135470        5.7510132844        6.2012071793
 H         -5.4279246723        4.7080572482       -1.4941103657
 H         -6.8257284307        5.1641105800       -0.5150327393
 H         -7.5073437728        3.8891887960       -2.5512450489
 H         -7.9413081452        3.0280365408       -1.0710420336
 H          5.4259326051       -1.7025836948       -4.8732629684
 H          4.9438103383       -2.6273074321       -3.4480721862
 H          4.1513822649       -3.7602409319       -5.5007348644
 H          3.3059464972       -2.2929052214       -6.0028706653
 H          4.5036617387       -4.6099463995        3.8693994914
 H          3.8381651974       -4.9660458956        2.2728299342
 H         -0.0968595310       -6.1015259451        2.8039000179
 H          0.5666163243       -5.7320408851        4.3979873344
 H         -0.4419769086        3.4109000702        6.7386152744
 H          0.7798825258        4.6862701836        6.7542176452
 H         -2.1356814451        5.7857148574        4.0312523179
 H         -3.3603568059        4.5130590868        4.0387495926
 H         -6.4178314419        3.2399022682        0.9997340448
 H         -4.9818051767        4.2634681411        0.8988800192
 H         -5.4725860675        2.4877565568       -2.7928964865
 H         -6.9178573442        1.4758497183       -2.7102401743
 H          3.4976024423       -0.1738281046       -4.5595767167
 H          4.5009960744       -0.2121201096       -3.1070269844
 H          2.7187259405       -3.9198265393       -3.4814500589
 H          1.7262461157       -3.8808006918       -4.9417056327
 H          1.6277905678        0.7646765207        4.4906635935
 H         -1.3714353985       -0.8626870992        0.6808584971
 H          0.6363864791        0.6470362058        1.1396208553
 H         -2.7559888894       -0.4981177108       -2.4988998938
 H          4.0939687926       -1.0443733364        1.4965692608
 H         -1.5269184948       -2.3414800691        4.6838686484
 H          3.3890407602        3.1863327542        1.4469677878
 H         -4.1253090737        0.8578381951        3.4489682537
 H         -1.1904979339        4.4045928750        0.2733754804
 H         -4.4066324926       -3.0601586475        0.4914983938
 H          0.7810658199        2.1850583580       -2.8411983293
 H         -0.6852110515       -4.0744256318       -1.3848107230
 H          2.0613906097       -1.6030746019        4.6046925107
 H          0.0545265099       -2.6661520905        1.2860108389
 H          1.7993833710        4.1734630259        2.9456525706
 H         -2.6316299431        1.0317925363        0.0123316362
 H         -0.6040941478        1.7325911935        2.8414668242
 H         -5.4396039253       -0.9377376098        0.0787654166
 H          1.7831543885       -0.6053046764       -0.5281127371
 H         -0.7099720621       -1.0710810092       -3.6383903535
 H          2.2554943142       -3.8551929430        4.6508537998
 H          1.4022242548       -4.4024967346        1.7665802725
 H          0.3218650481        5.1722292900        4.3475723452
 H         -1.6094934595        2.8171785961        4.5797056060
 H         -3.9746745316        2.7042102694       -0.7705318057
 H         -6.4886167811        1.0373101460       -0.2896793164
 H          2.9260571455       -1.8227367950       -2.0406089691
 H          1.3011459676       -1.4445871044       -4.6026231577
 C          6.4927358986       -1.0538046450      -13.7084713838
 C          5.1007344902       -0.4903709788      -13.4152691235
 O          7.4961779549       -0.2027337432      -13.1803828135
 C          7.3150578507       -0.0226343338      -11.7856892544
 C          5.9231204638        0.5407588054      -11.4923986005
 O          4.9195694602       -0.3105226044      -12.0206656572
 H          6.6730907156       -1.1086049916      -14.7821112380
 H          4.9788127362        0.4741239620      -13.9291613251
 H          7.4372062720       -0.9871701869      -11.2719070344
 H          5.8294272736        1.5408231706      -11.9398509587
 H          4.3236085304       -1.1838384679      -13.7370137591
 H          8.0921673948        0.6709304515      -11.4642642260
 H          5.7427226494        0.5954037711      -10.4187971958
 H          6.5864091353       -2.0539143867      -13.2609253420