142
-211.12716532
 C          0.1810204807       -6.6126885722        2.1198158265
 C         -0.4444206396       -6.4973258913        0.7335314799
 C         -2.6270621129        5.4657726089        5.6485232540
 C         -3.3400051182        5.6333442695        4.3105214785
 C         -2.0031892117        7.1986423227       -3.2366991994
 C         -2.3898652168        6.7505616181       -4.6424928176
 C          6.8523945716       -2.1707891902       -2.0822527221
 C          6.4839027098       -2.5160617289       -3.5214941667
 C          1.0572477838       -5.3992691798        2.4087471128
 C         -1.2572338022       -5.2130736990        0.6225069913
 C         -1.8168514750        4.1744695320        5.6630311877
 C         -2.3334560300        5.6227775176        3.1655367222
 C         -2.4327789153        6.1574237508       -2.2093334459
 C         -1.7629463193        5.3981598203       -4.9619453374
 C          6.2281187150       -0.8407180572       -1.6780586419
 C          4.9690301800       -2.5653596459       -3.6837259472
 C          0.9866637330        0.3973691655        3.7403497884
 C         -1.2544784950        0.5157949101       -0.5248843511
 C          1.5602783383        1.9655514671        0.4235589835
 C          0.0401352940        0.7491912248       -3.9958757970
 C          2.8852719090       -0.7788768173        2.8388336678
 C         -2.8588322696       -0.5113988602        0.9468437099
 C          3.0551500128        1.5731759326        3.3655571842
 C         -3.1922359160        1.7583978268        0.1833596395
 C          1.5154806638        4.3550460170        0.1256418388
 C         -2.0280947364       -0.4255932623       -3.6168925271
 C          3.1522842661        3.0151510823       -1.0456524802
 C          0.0768848808       -1.6057083101       -3.4922526318
 C          0.7374398836       -1.9796282215        3.1402986613
 C         -0.8765171904       -1.8062027119        0.2145933173
 C          1.0827787757        2.8399322915        4.1256616070
 C         -1.5455780864        2.8178359054       -1.3384159694
 C         -0.1226735592        3.2776358290        1.6444111235
 C         -2.0847879652        2.0152329850       -3.9570067646
 C          3.2197715520        0.5570697175       -0.7354155608
 C          2.2159157441       -0.3883460531       -3.7923875355
 C          1.5522317816       -0.7773890296        3.2582893958
 C         -1.6750809717       -0.5881137542        0.2106891157
 C          1.7237466565        1.5801077716        3.7794034432
 C         -2.0041970501        1.6893148190       -0.5433289803
 C          0.9932032736        3.2039149417        0.7141206674
 C         -1.3504979503        0.7601345354       -3.8975216409
 C          2.6400512964        1.8620311566       -0.4481511261
 C          0.7592632222       -0.4203427704       -3.7788924888
 C          3.6131912249        0.3913558453        2.9111115824
 C         -3.5920888407        0.6593380324        0.9209354757
 C          2.5795955976        4.2371291073       -0.7493795532
 C         -1.3015923277       -1.5881095013       -3.4284767163
 C          0.2520111559       -4.1043863222        2.3075614018
 C         -0.3849418174       -3.9868285475        0.8987083426
 C         -0.7917119137        4.1568355884        4.5320595924
 C         -1.5255044463        4.3291030207        3.1611278552
 C         -1.8011469539        4.8020049474       -2.5097570389
 C         -2.1965188179        4.3394722667       -3.9512494310
 C          4.7058348489       -0.8808205902       -1.8265474302
 C          4.3313076837       -1.2339499864       -3.2890201346
 Br         5.4344540544        0.3934290023        2.3332565302
 Br        -5.2033885617        0.7691654534        1.9421253736
 Br         3.2699873144        5.8127154441       -1.5812871020
 Br        -2.2367023676       -3.2061979532       -3.0312747029
 N          1.1253457437       -2.9833342132        2.4796167459
 N         -1.2059327429       -2.8183926360        0.8909947505
 N         -0.1354973385        2.8953198285        4.4645902395
 N         -2.2818115825        3.8129063143       -1.5990823772
 N         -0.5237447177        4.3682182402        2.1442488322
 N         -1.4998815392        3.1174481488       -4.1695000324
 N          4.1765177916        0.4152211892       -1.5447188024
 N          2.9058346382       -1.3492910983       -3.3509352972
 H         -0.6089633972       -6.6787246435        2.8711721278
 H          0.7834925557       -7.5202078742        2.1848797843
 H         -1.0932331995       -7.3534853550        0.5430678319
 H          0.3426092418       -6.4958390717       -0.0237572460
 H         -1.9601779451        6.3148597361        5.8151895497
 H         -3.3559982947        5.4451124131        6.4602300296
 H         -4.0535695826        4.8176779643        4.1736729037
 H         -3.8951255385        6.5726261035        4.2980042422
 H         -0.9208231296        7.3360050399       -3.1832139962
 H         -2.4761735703        8.1543679420       -3.0055943048
 H         -2.0552499560        7.4869883026       -5.3748257554
 H         -3.4771893378        6.6729889054       -4.7142703039
 H          7.9365386058       -2.1067499759       -1.9774513239
 H          6.4952835909       -2.9578640916       -1.4145286495
 H          6.9103505232       -3.4822947956       -3.7962162409
 H          6.8972360160       -1.7613021354       -4.1942195569
 H          1.4847477286       -5.4668009466        3.4112378530
 H          1.8806694108       -5.3492286833        1.6942488480
 H         -1.6873958350       -5.1166268881       -0.3762019527
 H         -2.0766601793       -5.2203289343        1.3428520911
 H         -2.4758660053        3.3128211251        5.5447085418
 H         -1.2880423580        4.0671350205        6.6123620108
 H         -1.6425205082        6.4622364025        3.2583437059
 H         -2.8472795841        5.7124688963        2.2067835146
 H         -3.5179023022        6.0426351211       -2.2145879319
 H         -2.1303953043        6.4648904282       -1.2067009722
 H         -0.6743928292        5.4709664981       -4.9395795551
 H         -2.0586541646        5.0671324695       -5.9596204661
 H          6.6126389077       -0.0356123842       -2.3060710274
 H          6.4707343876       -0.6033583304       -0.6405090022
 H          4.5470314278       -3.3495888185       -3.0529610776
 H          4.7027404896       -2.7862230844       -4.7194283495
 H         -0.0422812650        0.4251483960        4.0639503720
 H         -0.3396555134        0.4621201198       -1.0979724836
 H          1.1599073455        1.0766618872        0.8901837323
 H          0.5446681698        1.6780381793       -4.2124183816
 H          3.3152542063       -1.6946372937        2.4658993080
 H         -3.1753083566       -1.3705474676        1.5159777699
 H          3.6386073514        2.4812520952        3.3891795215
 H         -3.7683856647        2.6693020166        0.1585974370
 H          1.0737798366        5.3098446136        0.3613109300
 H         -3.1046996214       -0.4329948211       -3.5365342402
 H          3.9868612536        2.9251622655       -1.7221179525
 H          0.6430581418       -2.5079048280       -3.3246973291
 H         -0.2439797029       -1.9410912615        3.6329448791
 H          0.0289908899       -1.7819968867       -0.4124712894
 H          1.7044440196        3.7411933470        4.0204901926
 H         -0.5119889683        2.7408635874       -1.7068162087
 H         -0.5893799320        2.3127867324        1.8917330962
 H         -3.1633507141        1.9527683170       -3.7508032002
 H          2.7682079685       -0.2916877767       -0.1974205099
 H          2.6692905889        0.5358629402       -4.1766486295
 H         -0.5705582094       -4.0974391755        3.0426458372
 H          0.4329410960       -3.9189576929        0.1597426905
 H         -0.0788772958        4.9937307901        4.6326468109
 H         -2.1862109011        3.4542145764        3.0458680977
 H         -0.7009054874        4.8691802345       -2.4917982208
 H         -3.2920652555        4.2047485263       -3.9661187062
 H          4.2726730511       -1.6538763527       -1.1674814131
 H          4.7029522761       -0.4171214368       -3.9306973809
 C         -4.1729332593      -12.7777996730        2.4076849049
 C         -4.2112106745      -13.6244022338        1.1337317183
 O         -3.6346564424      -11.4943761682        2.1374653394
 C         -4.3849716388      -10.8409883961        1.1271019502
 C         -4.4225297556      -11.6872949812       -0.1468961058
 O         -4.9609417095      -12.9709328073        0.1232776267
 H         -3.5228447499      -13.2299809673        3.1568552460
 H         -3.1857798990      -13.7975845805        0.7763048008
 H         -5.4105813016      -10.6689427515        1.4843181366
 H         -3.4043391845      -11.7931988132       -0.5484669957
 H         -4.7080481119      -14.5778061123        1.3138302776
 H         -3.8894233660       -9.8871106389        0.9470048670
 H         -5.0724086865      -11.2352300118       -0.8962377576
 H         -5.1911368237      -12.6721968278        2.8093727649