142
-211.13309194
 C          2.1477504584       -7.0115702994        2.0745143620
 C          1.6963999189       -7.0883918544        0.6195729044
 C         -4.6268165019        3.7267408870        4.7844094108
 C         -5.1889348851        3.6616527149        3.3679754418
 C         -3.4287705880        5.4138050205       -4.1551431183
 C         -3.4890674126        4.8351149872       -5.5652375815
 C          7.5506633965       -0.8986203189       -1.3636936893
 C          7.5055495790       -1.3472853243       -2.8207524027
 C          2.5756552739       -5.5903714110        2.4218432688
 C          0.5571480454       -6.1090545367        0.3637807621
 C         -3.5032355789        2.7102773648        4.9543536881
 C         -4.0861197057        3.9136583799        2.3460413135
 C         -3.6391393423        4.3155411933       -3.1188388941
 C         -2.4486097832        3.7338105574       -5.7351809093
 C          6.5169555351        0.1922826337       -1.1114309131
 C          6.1090850349       -1.8415084465       -3.1801629237
 C          0.5386063799       -0.0914036730        3.4695353724
 C         -1.0122758816       -0.6530281623       -1.0008740326
 C          1.0081467617        1.5179908149        0.2584320547
 C          0.5223578528       -0.1420566895       -4.3016396816
 C          2.8249431868       -0.6095022576        2.9097931906
 C         -2.3719005868       -2.0479977537        0.4132999083
 C          2.1790839862        1.6687779715        3.3929912469
 C         -3.2796250640       -0.0062421278       -0.5120338874
 C          0.3007279416        3.7812409897       -0.1614567677
 C         -1.1424301477       -1.8735103402       -4.1218473522
 C          2.3916639720        2.9738445186       -1.0687717253
 C          1.1795608082       -2.3745092845       -3.6804213502
 C          1.1176313364       -2.4139305945        2.9189503408
 C         -0.0463897398       -2.7335553174       -0.0973681998
 C         -0.1736017813        2.2566814201        3.8181189210
 C         -1.8826390712        1.4349831841       -1.9668172090
 C         -1.1243104368        2.2862570872        1.2116327562
 C         -1.8669913804        0.4356938883       -4.5848669033
 C          3.1386742326        0.6512996424       -0.6280096456
 C          2.8872510415       -0.5799728554       -3.7645980869
 C          1.5068973124       -1.0242932278        3.1151938234
 C         -1.1589334247       -1.8041793591       -0.2324116756
 C          0.8617869434        1.2581420332        3.5991179700
 C         -2.0643175545        0.2476122322       -1.1465168303
 C          0.0707394474        2.5349434386        0.4198796650
 C         -0.8108673823       -0.5432728300       -4.3756301992
 C          2.1704683095        1.7288693668       -0.4771242472
 C          1.5165085220       -1.0429376007       -3.9378029082
 C          3.1359401546        0.7269855164        3.0591004864
 C         -3.4041463854       -1.1431831905        0.2642048039
 C          1.4528684061        3.9737151185       -0.9013235341
 C         -0.1391533797       -2.7663674314       -3.7890245281
 C          1.4395592718       -4.5988984607        2.1766904903
 C          0.9780769526       -4.6766595991        0.6976974896
 C         -2.3799701667        2.9652925874        3.9528980233
 C         -2.9537349843        2.9026049242        2.4985370252
 C         -2.5936014860        3.2154268243       -3.2711234058
 C         -2.6606614198        2.6181196610       -4.7150880364
 C          5.1087170811       -0.2960953285       -1.4576223450
 C          5.0627972218       -0.7542713903       -2.9377965937
 Br         4.9329055481        1.3035978553        2.7613143597
 Br        -5.0501876321       -1.4627411720        1.1627339699
 Br         1.7483475655        5.6720555883       -1.7244633341
 Br        -0.6031491118       -4.5849149707       -3.4338273365
 N          1.9064481365       -3.2668229718        2.4210517799
 N         -0.1472793192       -3.8101069934        0.5522810408
 N         -1.3847660989        1.9473584469        4.0235311687
 N         -2.8507228681        2.1511779183       -2.3537389720
 N         -1.8857522148        3.2169693454        1.6044761022
 N         -1.6115326404        1.6585674109       -4.7877881940
 N          4.1906767259        0.7880606296       -1.3099247246
 N          3.7563517604       -1.2860984395       -3.1813531143
 H          1.3256496912       -7.3134928303        2.7272729059
 H          2.9817571266       -7.6944301966        2.2448516727
 H          1.3623518702       -8.0997416779        0.3828427741
 H          2.5359667613       -6.8487445244       -0.0365855128
 H         -4.2434506537        4.7307830476        4.9795978126
 H         -5.4152319526        3.5194394336        5.5094741593
 H         -5.6259271563        2.6756175834        3.1950683692
 H         -5.9764568020        4.4064145145        3.2433343762
 H         -2.4547442181        5.8815618799       -3.9949282898
 H         -4.1952567138        6.1807214681       -4.0331078039
 H         -3.3076575116        5.6213676050       -6.2997463918
 H         -4.4848675106        4.4250299929       -5.7487512524
 H          8.5434290954       -0.5182414366       -1.1184708066
 H          7.3460222923       -1.7510823884       -0.7122603900
 H          8.2285513901       -2.1471178773       -2.9894077252
 H          7.7724277653       -0.5091014518       -3.4682558910
 H          2.8738951698       -5.5261477661        3.4702138195
 H          3.4296043823       -5.2931383617        1.8107703805
 H          0.2478381460       -6.1468504996       -0.6824014095
 H         -0.3068004075       -6.3651096118        0.9789962585
 H         -3.8870188505        1.7011488967        4.7986099282
 H         -3.0885197899        2.7629658445        5.9629703693
 H         -3.6724940600        4.9154764390        2.4726272977
 H         -4.4823354507        3.8385648123        1.3318409142
 H         -4.6290891265        3.8704934420       -3.2315032549
 H         -3.5660160956        4.7251447710       -2.1097695295
 H         -1.4439502098        4.1379994172       -5.6009810267
 H         -2.5085720620        3.3042129287       -6.7372941734
 H          6.7354844536        1.0694875794       -1.7223484441
 H          6.5322349241        0.4996955561       -0.0640635771
 H          5.8485933217       -2.7108871792       -2.5740484934
 H          6.0671266376       -2.1381351670       -4.2302280968
 H         -0.4833107709       -0.4012461153        3.6164930339
 H         -0.0739822840       -0.4577659524       -1.5006671027
 H          0.8319184675        0.5564898141        0.7194192730
 H          0.7573392755        0.8921488463       -4.5002914626
 H          3.5686486210       -1.3407198372        2.6361438488
 H         -2.4720187208       -2.9321701901        1.0203112330
 H          2.4459475896        2.7110473795        3.4835235661
 H         -4.0898286558        0.6948602275       -0.6335575529
 H         -0.4277501998        4.5643980414       -0.0261985160
 H         -2.1705188843       -2.1989838198       -4.1739444085
 H          3.2933102769        3.1276611433       -1.6394294233
 H          1.9575240958       -3.0661496021       -3.3995036469
 H          0.0873816670       -2.6573556501        3.2068904624
 H          0.8842587008       -2.4353516113       -0.6066992289
 H          0.1532520547        3.3042516079        3.7418207324
 H         -0.8401789972        1.6630515953       -2.2337677873
 H         -1.3144990917        1.2300808542        1.4523018761
 H         -2.8965370001        0.0583171112       -4.4975580930
 H          2.8899054414       -0.2854546149       -0.1040571361
 H          3.1013178070        0.4311096820       -4.1377048961
 H          0.5652578571       -4.8423649410        2.8031827166
 H          1.8236709312       -4.3625983373        0.0602494228
 H         -1.9520297988        3.9730406499        4.0932541787
 H         -3.3201162570        1.8738885943        2.3481371309
 H         -1.5763367690        3.6208899122       -3.1455863787
 H         -3.6565128038        2.1572280874       -4.8366287350
 H          4.8314904659       -1.1577719844       -0.8247534165
 H          5.2665579598        0.1309722633       -3.5638259054
 C         -4.0743924784       -3.6998315690        4.5276377235
 C         -2.5997638685       -3.4800372844        4.1875482366
 O         -4.4631143730       -2.8629661287        5.6033921445
 C         -4.2324754854       -1.5025538374        5.2768708735
 C         -2.7573555751       -1.2770258265        4.9444753465
 O         -2.3516529775       -2.1185466650        3.8732969919
 H         -4.2469243802       -4.7243493385        4.8575752379
 H         -1.9782441132       -3.7739995821        5.0465810883
 H         -4.8556791613       -1.2237488902        4.4154111381
 H         -2.1445194554       -1.4981441403        5.8307661250
 H         -2.3123415596       -4.0568496947        3.3076323589
 H         -4.5242341525       -0.9239777002        6.1533795815
 H         -2.5746702252       -0.2513765398        4.6196113661
 H         -4.6958250768       -3.4784872865        3.6487590156