142
-211.12680825
 C         -0.7770080004       -7.1101378042        1.8057787679
 C         -1.3702354106       -7.0093175521        0.4042319227
 C         -4.1478387041        4.8403944970        5.3040193428
 C         -4.8269254242        4.9939902127        3.9468616032
 C         -3.4188738242        6.6229351875       -3.5467027336
 C         -3.7301022986        6.1553061143       -4.9648146445
 C          5.8393816009       -2.3905448329       -2.1735652153
 C          5.5171751025       -2.7456455677       -3.6214886666
 C          0.0408473261       -5.8643702885        2.1262777063
 C         -2.2314377387       -5.7582310109        0.2806891704
 C         -3.2938096535        3.5779380595        5.3329280943
 C         -3.7879529501        5.0273571864        2.8316270889
 C         -3.8301167527        5.5610462234       -2.5329707101
 C         -3.0234613830        4.8367560474       -5.2581562672
 C          5.1569612369       -1.0854247640       -1.7822590567
 C          4.0093302146       -2.8508602182       -3.8186355837
 C         -0.2965252077       -0.0806056063        3.4789888187
 C         -2.4399677769       -0.0242249929       -0.8197730545
 C          0.3203713611        1.5338243993        0.1909089507
 C         -1.0376759705        0.2707545635       -4.2386341462
 C          1.6727424786       -1.1835086285        2.6383157574
 C         -4.0443624230       -1.1366461924        0.5884552354
 C          1.7385703529        1.1715076306        3.1749288320
 C         -4.4549539083        1.1228549268       -0.1682651204
 C          0.1969968026        3.9218686031       -0.0963992893
 C         -3.0640091488       -0.9948762924       -3.9321722867
 C          1.9219926743        2.6508323933       -1.2168627442
 C         -0.9151446592       -2.0847315286       -3.7510543721
 C         -0.4374752930       -2.4637277888        2.8669826353
 C         -1.9834779955       -2.3349339391       -0.0897213618
 C         -0.3024683822        2.3618803368        3.8757169955
 C         -2.8094660307        2.2677010975       -1.6289617078
 C         -1.4487687739        2.7749902849        1.3625287872
 C         -3.2174690115        1.4421449513       -4.2634965464
 C          2.0693399113        0.1948461870       -0.9170938955
 C          1.1781618330       -0.7771995871       -3.9820959350
 C          0.3274385998       -1.2321633909        3.0134852400
 C         -2.8345133822       -1.1530352146       -0.1080462250
 C          0.3950276932        1.1281710658        3.5449973417
 C         -3.2414044870        1.1142527356       -0.8548548488
 C         -0.3017137947        2.7485605648        0.4682993121
 C         -2.4298854540        0.2210090983       -4.1840655831
 C          1.4325465861        1.4758143895       -0.6434157104
 C         -0.2758832864       -0.8689471814       -4.0082935276
 C          2.3543231762        0.0124256707        2.7366895074
 C         -4.8286561021        0.0000723244        0.5470758815
 C          1.2942809176        3.8488857701       -0.9346234984
 C         -2.2943971108       -2.1267063773       -3.7290901692
 C         -0.8137402495       -4.6025688054        2.0132524341
 C         -1.4184847412       -4.4993967285        0.5891627145
 C         -2.2355587290        3.6064789644        4.2331004944
 C         -2.9343830539        3.7633486419        2.8422058268
 C         -3.1201525448        4.2393883262       -2.8079254426
 C         -3.4398974485        3.7577871436       -4.2618476507
 C          3.6411017945       -1.1817193324       -1.9655261509
 C          3.3131859594       -1.5451367882       -3.4368713234
 Br         4.1924358161        0.0827865060        2.2202220306
 Br        -6.4760160085        0.0279878922        1.5150324080
 Br         1.9543991578        5.4543458088       -1.7335538136
 Br        -3.1711282101       -3.7867647286       -3.3737788205
 N          0.0090686203       -3.4489342375        2.2155788571
 N         -2.2878134771       -3.3666819479        0.5686069076
 N         -1.5317017300        2.3703817470        4.1774064401
 N         -3.5835257834        3.2266803386       -1.9142631462
 N         -1.9047111221        3.8466184011        1.8563310301
 N         -2.6777692759        2.5710186908       -4.4546795599
 N          3.0573179194        0.0929384749       -1.6942952533
 N          1.8950190157       -1.7145889062       -3.5328362769
 H         -1.5829352117       -7.2137666592        2.5357183510
 H         -0.1391493145       -7.9924447774        1.8803642682
 H         -1.9792497479       -7.8889039120        0.1900688872
 H         -0.5644034719       -6.9701034105       -0.3319457440
 H         -3.5161102880        5.7106683210        5.4963057431
 H         -4.8989616807        4.7878578332        6.0937530480
 H         -5.5075054514        4.1553473914        3.7835074091
 H         -5.4137009240        5.9136517062        3.9246672134
 H         -2.3478842197        6.8170162126       -3.4543860121
 H         -3.9494662932        7.5525495304       -3.3349055850
 H         -3.4069446677        6.9078553558       -5.6858324677
 H         -4.8086198396        6.0220140118       -5.0764458752
 H          6.9176946301       -2.2867673091       -2.0435433254
 H          5.4961937637       -3.1917864572       -1.5154671638
 H          5.9854071276       -3.6946908607       -3.8879112916
 H          5.9174054794       -1.9743863615       -4.2833423187
 H          0.4448796594       -5.9225493415        3.1390588546
 H          0.8796822554       -5.7750077841        1.4339188812
 H         -2.6382669919       -5.6715896359       -0.7285933600
 H         -3.0691216455       -5.8048004087        0.9782368571
 H         -3.9183935304        2.6949711152        5.1879584645
 H         -2.7900833537        3.4804791083        6.2968443452
 H         -3.1303874920        5.8901270225        2.9496989825
 H         -4.2768995751        5.1056541500        1.8589638815
 H         -4.9071224779        5.3909338807       -2.5757820999
 H         -3.5788700850        5.8840696783       -1.5211332503
 H         -1.9415881360        4.9649089932       -5.1959350956
 H         -3.2649632199        4.4907629183       -6.2653005131
 H          5.5253987110       -0.2653378096       -2.4004615641
 H          5.3667349370       -0.8413081833       -0.7391382618
 H          3.6024814324       -3.6516678578       -3.1988209320
 H          3.7752245577       -3.0791992685       -4.8604548580
 H         -1.3358277019       -0.0916468059        3.7687125665
 H         -1.5051094329       -0.0311740816       -1.3621249946
 H         -0.0622459297        0.6278441344        0.6392097770
 H         -0.5671675102        1.2220259267       -4.4333904021
 H          2.1480512907       -2.0819536586        2.2784902932
 H         -4.3406072631       -2.0145992576        1.1394948153
 H          2.2872048387        2.1002595697        3.2197347271
 H         -5.0712341258        2.0066885305       -0.2057123086
 H         -0.2879515889        4.8581566391        0.1284546653
 H         -4.1412713692       -1.0490760170       -3.8858346867
 H          2.7822203725        2.5960011321       -1.8643312245
 H         -0.3159549510       -2.9634225041       -3.5737180087
 H         -1.4341269878       -2.4647549651        3.3295736429
 H         -1.0623798817       -2.2659009141       -0.6902232010
 H          0.2885652338        3.2859088102        3.7943773316
 H         -1.7610299941        2.2421477103       -1.9606535901
 H         -1.8874332088        1.7921238942        1.5892501670
 H         -4.2983900841        1.3295235830       -4.0940465556
 H          1.6318736908       -0.6731196425       -0.3984357040
 H          1.6033039880        0.1680818414       -4.3468809642
 H         -1.6546853986       -4.6344802436        2.7265579402
 H         -0.5852213105       -4.3909428155       -0.1274048966
 H         -1.5572122564        4.4680069171        4.3607976415
 H         -3.5595039639        2.8663551771        2.7009367994
 H         -2.0261005244        4.3620270692       -2.7502102873
 H         -4.5263716160        3.5697245382       -4.3155674284
 H          3.2218475826       -1.9720204026       -1.3180601661
 H          3.6684435676       -0.7133230889       -4.0684472602
 C         10.5552646989       -5.1008829712        3.8316184754
 C         12.0367412022       -5.1505192904        3.4527014362
 O         10.1909971061       -6.2553145665        4.5701929925
 C         10.9978412056       -6.3819609783        5.7290048933
 C         12.4793577975       -6.4317968312        5.3500055266
 O         12.8439553499       -5.2778091676        4.6114855365
 H          9.9249735622       -5.0961451131        2.9423211928
 H         12.2170931870       -6.0047643010        2.7841335088
 H         10.8178431064       -5.5274081018        6.3972870617
 H         12.6747054136       -7.3306296370        4.7473225557
 H         12.3457368423       -4.2254174834        2.9659369794
 H         10.6887694759       -7.3067397769        6.2164680840
 H         13.1095230924       -6.4364595794        6.2394731639
 H         10.3594748543       -4.2021509969        4.4341482893