142
-211.12710629
 C          5.3566911489       -5.6220733595        3.5514416882
 C          4.3804695080       -6.3576965780        2.6392053652
 C         -2.8554204499        3.8657661601        6.6052119161
 C         -3.9160249719        3.1486221678        5.7760114728
 C         -6.4112729234        2.0850734386       -1.5792657130
 C         -6.8653608763        1.0054056641       -2.5564638176
 C          6.1280295056       -0.6023659571       -3.7337588907
 C          5.6007664837       -1.6037039558       -4.7563593725
 C          5.3474972692       -4.1291949265        3.2435498719
 C          2.9754505265       -5.7889099298        2.7959758146
 C         -1.4846295231        3.2399705782        6.3740500323
 C         -3.5533441950        3.1894008474        4.2956967452
 C         -5.7478162003        1.4557469177       -0.3593133601
 C         -5.6846347199        0.1386733552       -2.9793334666
 C          5.0049606281        0.3101897388       -3.2561229895
 C          4.4637329038       -2.4238327978       -4.1579607520
 C          2.2088380333        0.8956256868        3.7787022673
 C         -0.8953703512       -1.7323910131        1.1716210705
 C          0.5877488256        1.1173772497        0.4725769007
 C         -1.2340331270       -2.2759964402       -2.4572195785
 C          4.0066572264        0.5583907753        2.2115795307
 C         -0.9406805837       -2.7688239786        3.3437775777
 C          2.8716506438        2.6887629999        2.3132942497
 C         -2.8175786933       -1.4418721219        2.5931605733
 C         -0.9795453901        2.8649800215       -0.0652603419
 C         -1.9160008571       -4.0551040807       -0.9834612455
 C          0.6417319698        2.1389621856       -1.7062326563
 C          0.3710714555       -3.9274325771       -1.7513874690
 C          3.2768729367       -1.3220035367        3.6518750318
 C          1.0381323458       -3.0856885202        1.8848201543
 C          0.9215965064        3.0096441877        3.7841463331
 C         -2.7778863021       -0.3816325570        0.3509812725
 C         -1.0322609428        1.8160321210        2.1830309396
 C         -3.5361696836       -2.2875293381       -1.5482200911
 C          2.2690771859        0.3503726872       -1.1587679412
 C          1.1070058420       -2.0529517126       -3.1957932629
 C          3.1757237407        0.0665438730        3.2217974445
 C         -0.2824798775       -2.5254819494        2.1369082683
 C          2.0374501457        2.2002729679        3.3180348255
 C         -2.1580828471       -1.1876083643        1.3912466661
 C         -0.4771388184        1.9345681123        0.8436944364
 C         -2.2246702928       -2.8994234855       -1.6997831102
 C          1.1553385922        1.2152509339       -0.7941530413
 C          0.0645414467       -2.7716746562       -2.4746811872
 C          3.8464971126        1.8610465244        1.7851043572
 C         -2.1925690206       -2.2213516498        3.5490909039
 C         -0.4154119804        2.9430290603       -1.3253436909
 C         -0.6256787991       -4.5523794877       -1.0300976330
 C          3.9448404525       -3.5442241713        3.4037589171
 C          2.9505160528       -4.2923083196        2.4787833395
 C         -1.1005482437        3.2920442481        4.8975530732
 C         -2.1890020676        2.5530043955        4.0508938652
 C         -4.5578464130        0.5937235460       -0.7684356375
 C         -5.0253611961       -0.5152961557       -1.7678763470
 C          3.8632537776       -0.5016420706       -2.6409458096
 C          3.3275441519       -1.5209348437       -3.6790707430
 Br         4.9767457861        2.5340623814        0.3992714730
 Br        -3.0853988285       -2.5409996734        5.2080587076
 Br        -1.1287630782        4.1941593951       -2.5810822697
 Br        -0.2080124235       -6.1294216077       -0.0356584482
 N          3.9520634025       -2.1697517960        3.0039645826
 N          1.6438438512       -3.7813086178        2.7448737205
 N          0.1163973463        2.5903849418        4.6662342564
 N         -4.0026975401       -0.0661731685        0.3698546884
 N         -1.8173774436        2.6758959524        2.6774099652
 N         -3.8468480838       -1.2175591001       -2.1488926520
 N          2.7909660461        0.3802675390       -2.3064633705
 N          2.3306479791       -2.3147257633       -3.0270498236
 H          5.0705900177       -5.7801493233        4.5936490860
 H          6.3657240887       -6.0149110736        3.4155780635
 H          4.3681059689       -7.4212748267        2.8822683688
 H          4.7013178436       -6.2531756393        1.6004370907
 H         -2.8248036048        4.9210433845        6.3243004205
 H         -3.1067905550        3.8062692166        7.6653538717
 H         -3.9913310160        2.1088742573        6.1023033159
 H         -4.8886669173        3.6200672179        5.9252471385
 H         -5.7008342845        2.7497691199       -2.0758763768
 H         -7.2661249451        2.6832335323       -1.2598764670
 H         -7.3127036543        1.4648098460       -3.4393067377
 H         -7.6235808945        0.3788650140       -2.0810913832
 H          6.9213129685        0.0027220619       -4.1753251540
 H          6.5486905642       -1.1385880493       -2.8802700515
 H          6.4025050815       -2.2723390451       -5.0742761285
 H          5.2387591704       -1.0684099384       -5.6369397978
 H          6.0260498979       -3.5967425960        3.9131874541
 H          5.6788290719       -3.9530168203        2.2187611521
 H          2.2790172393       -6.2986167929        2.1275138413
 H          2.6225294280       -5.9284523803        3.8189172594
 H         -1.4858048858        2.1967232863        6.6940152160
 H         -0.7222959445        3.7687237807        6.9499428413
 H         -3.5237750453        4.2203348234        3.9393338966
 H         -4.2971896293        2.6495161137        3.7070343562
 H         -6.4596834637        0.8292228015        0.1804986968
 H         -5.3944924670        2.2307509190        0.3232304520
 H         -4.9369851394        0.7428925989       -3.4956963591
 H         -6.0137813956       -0.6473363744       -3.6621078727
 H          4.6046332636        0.8867954967       -4.0913909450
 H          5.3750237566        1.0139618212       -2.5081697986
 H          4.8240011329       -3.0040366267       -3.3067200617
 H          4.0661556884       -3.1220702136       -4.8973964074
 H          1.5514646112        0.5367637453        4.5554391350
 H         -0.3918471767       -1.5428178291        0.2342601340
 H          0.9821441062        0.4052498150        1.1835093765
 H         -1.4935958615       -1.3819911966       -3.0027364107
 H          4.7538067568       -0.0920543038        1.7858656567
 H         -0.4576502641       -3.3828137150        4.0866880362
 H          2.7501332244        3.6964707447        1.9454271665
 H         -3.7969565120       -1.0200894524        2.7522176394
 H         -1.8004658281        3.4972768047        0.2325370370
 H         -2.6722607240       -4.5483743214       -0.3915681040
 H          1.0853916467        2.2061681768       -2.6864827621
 H          1.3810327659       -4.3044060049       -1.7712634334
 H          2.7030778038       -1.5867807714        4.5507324387
 H          1.4671359286       -2.8619804363        0.8950219406
 H          0.7904635008        3.9807796707        3.2846032157
 H         -2.1062369579       -0.0743870927       -0.4642030927
 H         -0.7109361481        0.9258096740        2.7436198828
 H         -4.2170434790       -2.7803230521       -0.8387002955
 H          2.6228359088       -0.3267165324       -0.3648841140
 H          0.7611641053       -1.2521741393       -3.8638971615
 H          3.5863258940       -3.6661294096        4.4399106175
 H          3.2567604882       -4.1129575412        1.4329409718
 H         -1.0553506493        4.3350724431        4.5387389698
 H         -2.1824344093        1.5008214057        4.3796917273
 H         -3.8006799312        1.1953799169       -1.2975764068
 H         -5.7412041445       -1.1623677320       -1.2316166579
 H          4.2201265967       -1.0662414747       -1.7613542942
 H          2.9052329284       -0.9443661081       -4.5193937654
 C         -1.9398218691        7.7382564342      -10.5312478391
 C         -1.5193391406        6.4012926671      -11.1452453136
 O         -2.9679127050        7.5453426949       -9.5744721334
 C         -2.5462733529        6.6445083600       -8.5636772367
 C         -2.1247476046        5.3075665759       -9.1765965902
 O         -1.0981142670        5.4993091497      -10.1359307406
 H         -2.3503435311        8.4040754031      -11.2905316242
 H         -2.3666646726        5.9672630143      -11.6957620048
 H         -1.7001176283        7.0793756300       -8.0125740097
 H         -2.9924757434        4.8335573608       -9.6579499559
 H         -0.6681942304        6.5297885421      -11.8141361742
 H         -3.3970751449        6.5153521035       -7.8947133810
 H         -1.7124335514        4.6445499884       -8.4160645627
 H         -1.0718956749        8.2100171344      -10.0482141065