142
-211.13343499
 C          2.4841671458       -6.7871247807        3.0800740301
 C          1.7007010702       -7.0243693880        1.7931451132
 C         -3.2158230564        4.4449372720        5.6240726411
 C         -4.0424597721        4.2815663706        4.3528182631
 C         -4.0276573670        5.2141898425       -3.0793546996
 C         -4.3638528819        4.5227379647       -4.3965140321
 C          7.4662480197       -0.8376249738       -2.5875405464
 C          7.0518899218       -1.4408302155       -3.9256869542
 C          3.0187784168       -5.3602272040        3.1197993424
 C          0.5578089531       -6.0234449246        1.6754936825
 C         -2.0801355653        3.4286056881        5.6539595179
 C         -3.1584434697        4.4358243709        3.1205564168
 C         -4.0291039341        4.2074401101       -1.9347868304
 C         -3.3714272781        3.4000323017       -4.6759552873
 C          6.5155079497        0.2868139364       -2.1955509370
 C          5.6188512694       -1.9550186359       -3.8535817111
 C          1.4859891316        0.3512833506        3.8171452075
 C         -1.1220548663       -0.6527338938        0.0562077579
 C          1.4047175514        1.7835674224        0.2576772397
 C         -0.1026527187       -0.3269593652       -3.6366603508
 C          3.5460649975       -0.4048343762        2.8255935054
 C         -2.2389211551       -1.9051318089        1.7822064259
 C          3.1191643113        1.9606494999        3.0797987282
 C         -3.2589952244        0.0924618244        0.8787813090
 C          0.6436744702        4.0277275823       -0.1742699134
 C         -1.6363757442       -2.0348682221       -2.9005733396
 C          2.5058277328        3.1165330067       -1.4175514943
 C          0.7374310106       -2.4900845515       -2.9907093418
 C          1.8411399326       -2.0678020111        3.5202431685
 C         -0.0532756298       -2.6982736773        0.9253117252
 C          0.9511406392        2.7627302825        3.9405514810
 C         -2.1163803263        1.3842365847       -0.9017440154
 C         -0.4884988182        2.6657151745        1.5595191072
 C         -2.5103249661        0.2092946324       -3.4031030166
 C          3.3166382024        0.8194682052       -0.9685105642
 C          2.3299597934       -0.7186591398       -3.6781512969
 C          2.3046880860       -0.6915461801        3.3999016697
 C         -1.1528178018       -1.7432808700        0.9201743331
 C          1.8761978739        1.6784592922        3.6447504394
 C         -2.1685483723        0.2654951654        0.0274192838
 C          0.5265851885        2.8298831168        0.5299189144
 C         -1.4043577014       -0.7354944693       -3.3504007377
 C          2.3998668900        1.9202684487       -0.7055567081
 C          0.9709089129       -1.1896736594       -3.4468350217
 C          3.9335516448        0.9127295330        2.6872753955
 C         -3.2676285851       -0.9837391188        1.7470660361
 C          1.6247911096        4.1442656949       -1.1414549042
 C         -0.5595941432       -2.8881297037       -2.7381985369
 C          1.8828641848       -4.3440851081        3.0109038627
 C          1.0798275247       -4.5860199224        1.7057464965
 C         -1.1739571245        3.5785806944        4.4344591360
 C         -2.0223489123        3.4178278215        3.1297133916
 C         -3.0357182614        3.0789748525       -2.1934488854
 C         -3.3683868840        2.3710164771       -3.5479513182
 C          5.0732126567       -0.2152174029       -2.1110959577
 C          4.6511122061       -0.8369560291       -3.4684464988
 Br         5.6310781386        1.3080580139        1.9025362709
 Br        -4.7464001984       -1.1951449219        2.9389725243
 Br         1.7582318632        5.7743477838       -2.1291667392
 Br        -0.8817892278       -4.6620568738       -2.1135833613
 N          2.4296659177       -3.0229910878        2.9407299009
 N         -0.0299103558       -3.6873533799        1.7076662771
 N         -0.2068430898        2.5350958202        4.3982608122
 N         -3.1304695824        2.0921961659       -1.1661658289
 N         -1.1475190329        3.6405372044        2.0240031044
 N         -2.3329523623        1.4144483011       -3.7481892210
 N          4.2094735697        0.8928313794       -1.8564235877
 N          3.3375706173       -1.3808003023       -3.3024628167
 H          1.8319591617       -6.9551115333        3.9400350279
 H          3.3171193785       -7.4889982252        3.1465857533
 H          1.2959315316       -8.0374971123        1.7811556463
 H          2.3666451241       -6.9174347384        0.9342069929
 H         -2.8010665580        5.4548261138        5.6623537830
 H         -3.8488631035        4.3066642761        6.5019734220
 H         -4.5069212776        3.2929260297        4.3451636770
 H         -4.8377258589        5.0281077131        4.3252253337
 H         -3.0417512586        5.6786290188       -3.1531992985
 H         -4.7560036199        6.0000023901       -2.8728507457
 H         -4.3349043684        5.2436533289       -5.2151440244
 H         -5.3741170020        4.1104177353       -4.3448787222
 H          8.4824749497       -0.4455604196       -2.6510030728
 H          7.4510793758       -1.6114604289       -1.8169863955
 H          7.7197884438       -2.2625332798       -4.1895646427
 H          7.1268256347       -0.6808967418       -4.7067218554
 H          3.5593196551       -5.1802701884        4.0513411745
 H          3.7098171503       -5.1931340934        2.2918919717
 H          0.0127106939       -6.1738273954        0.7416213374
 H         -0.1436261082       -6.1510060652        2.5014428079
 H         -2.4811631080        2.4137462426        5.6618280413
 H         -1.4750098671        3.5592847656        6.5534392045
 H         -2.7250379170        5.4366794189        3.0862727929
 H         -3.7448053197        4.2899516418        2.2117212638
 H         -5.0220404776        3.7716006645       -1.8131440755
 H         -3.7571718719        4.6974461857       -0.9981381000
 H         -2.3624336909        3.8036366557       -4.7754154792
 H         -3.6243572956        2.8908055345       -5.6082118390
 H          6.5556145630        1.0906087275       -2.9323212840
 H          6.7944246084        0.7033997837       -1.2257517295
 H          5.5398426023       -2.7490289143       -3.1091089324
 H          5.3110048360       -2.3652416229       -4.8176009036
 H          0.5201905024        0.1562231780        4.2568204571
 H         -0.2818665019       -0.5181643645       -0.6102898728
 H          1.3155186902        0.8595309661        0.8114105389
 H          0.0532083648        0.6834507439       -3.9818428395
 H          4.1739198737       -1.2197158129        2.5023458316
 H         -2.2514961981       -2.7489590530        2.4529532965
 H          3.4360729625        2.9832391704        2.9403056195
 H         -4.0669699711        0.8055418805        0.8451751332
 H         -0.0381351344        4.8330929309        0.0469674654
 H         -2.6412008398       -2.3572628954       -2.6712474437
 H          3.2770871403        3.2111331597       -2.1648094001
 H          1.5766360755       -3.1516059016       -2.8450916544
 H          0.9338311753       -2.2128319707        4.1229724093
 H          0.7502874652       -2.5016894929        0.1981008926
 H          1.2995867432        3.7768060718        3.6964050650
 H         -1.1351898743        1.5664474532       -1.3637132403
 H         -0.6379112117        1.6348359616        1.9121193674
 H         -3.4866794046       -0.1786882792       -3.0802460135
 H          3.1817950155       -0.0737789362       -0.3383539939
 H          2.4173950526        0.2578384661       -4.1747058902
 H          1.1797490395       -4.4508247495        3.8541417951
 H          1.7563946858       -4.4014424647        0.8530208166
 H         -0.7113818540        4.5803349944        4.4060672482
 H         -2.4166232326        2.3882288624        3.1343590639
 H         -2.0097182629        3.4717615407       -2.2867664086
 H         -4.3601043705        1.8984957336       -3.4400886489
 H          4.9786414503       -0.9968973299       -1.3370423174
 H          4.6670371974       -0.0290568776       -4.2194949615
 C         -5.5086381731       -4.2086220574       -0.3449876686
 C         -5.4171751484       -2.8113701471       -0.9596493127
 O         -6.1645710085       -5.0972123193       -1.2317453732
 C         -5.4869959729       -5.1507741101       -2.4752247363
 C         -5.3980330139       -3.7557039733       -3.0952995575
 O         -4.7460962964       -2.8567862387       -2.2092503018
 H         -6.1039685277       -4.1913352626        0.5678203165
 H         -6.4277486736       -2.4041512315       -1.1033715514
 H         -4.4755287101       -5.5555136981       -2.3271058743
 H         -6.4085276398       -3.3820652915       -3.3122292198
 H         -4.8344649663       -2.1418912095       -0.3274201602
 H         -6.0655602736       -5.8206442839       -3.1110992173
 H         -4.8038737420       -3.7718564629       -4.0095328265
 H         -4.4982934799       -4.5843773904       -0.1274080626