142
-211.13384891
 C          1.9857237041       -6.9997569862        2.9927377815
 C          1.2465690574       -7.1929400879        1.6727965008
 C         -3.3085434265        4.3803478892        5.5125075037
 C         -4.1127788074        4.2589127858        4.2225194659
 C         -3.9585651875        5.1884944119       -3.3666241100
 C         -4.2370646700        4.4649468004       -4.6798151122
 C          7.6412647181       -0.5442292479       -2.5428950743
 C          7.2825928734       -1.1185223909       -3.9094735911
 C          2.5798777451       -5.5981435552        3.0657144904
 C          0.1527876952       -6.1433551695        1.5184574300
 C         -2.1995422287        3.3354019634        5.5452278908
 C         -3.2003373869        4.4191197447        3.0120992822
 C         -3.9947219426        4.2060850211       -2.2018461572
 C         -3.2193974715        3.3514016935       -4.8969591582
 C          6.6473800105        0.5403076152       -2.1459849760
 C          5.8646281374       -1.6771699821       -3.8931206390
 C          1.2788945972        0.1726928342        3.7473378550
 C         -1.2075142298       -0.6411272867       -0.0189519728
 C          1.4146322374        1.8339256696        0.1731832002
 C          0.0841647902       -0.2535798068       -3.7283821899
 C          3.3342765031       -0.6649615450        2.8146550556
 C         -2.4450590283       -1.8887426067        1.6252412636
 C          3.0079980711        1.7150090014        3.0904707621
 C         -3.3764176931        0.1324526468        0.6836426605
 C          0.6372747124        4.0822375143       -0.2064952964
 C         -1.3893561488       -2.0077038840       -2.9772930292
 C          2.5423986595        3.2343841545       -1.4279772464
 C          0.9969818635       -2.3872640352       -3.0907144734
 C          1.5324457228       -2.2559212265        3.4344026771
 C         -0.2488015976       -2.7367356460        0.8608358391
 C          0.8480743436        2.6014149002        3.8956233606
 C         -2.1232828875        1.4093919825       -1.0281794222
 C         -0.5191144059        2.6603832549        1.4584440878
 C         -2.3346291423        0.2082352735       -3.5149896205
 C          3.3819273675        0.9411258366       -1.0237451376
 C          2.5306875291       -0.5569017262       -3.7536044007
 C          2.0622890737       -0.9016435505        3.3431137282
 C         -1.3113548374       -1.7422069815        0.8247184226
 C          1.7346050644        1.4827633344        3.6081083672
 C         -2.2361478072        0.2931639435       -0.1013483522
 C          0.5185101026        2.8616305864        0.4573567457
 C         -1.2026445382       -0.7040152299       -3.4362771224
 C          2.4346031212        2.0149823027       -0.7565371744
 C          1.1870842854       -1.0773597489       -3.5382661100
 C          3.7862760060        0.6352449913        2.7100876801
 C         -3.4511513873       -0.9478314766        1.5409792666
 C          1.6396455391        4.2409921373       -1.1451678483
 C         -0.2846693014       -2.8285804916       -2.8313593990
 C          1.4955271409       -4.5312333234        2.9224189436
 C          0.7310079369       -4.7298121131        1.5853109694
 C         -1.2631338368        3.4848495762        4.3483793359
 C         -2.0834193414        3.3796540978        3.0207136668
 C         -2.9810492458        3.0821532607       -2.3940690674
 C         -3.2447599868        2.3449786892       -3.7488854265
 C          5.2185729004       -0.0038840153       -2.1184988416
 C          4.8516165951       -0.6017210269       -3.5032318864
 Br         5.5275339446        0.9622083027        1.9912214049
 Br        -4.9930107887       -1.1389722972        2.6454519618
 Br         1.7733520135        5.9009448296       -2.0817293720
 Br        -0.5358669531       -4.6227443657       -2.2340086194
 N          2.1039135264       -3.2370407058        2.8813409253
 N         -0.3412990281       -3.7866048838        1.5553386371
 N         -0.3319948369        2.4095751017        4.3105635726
 N         -3.1231801779        2.1096136054       -1.3598380955
 N         -1.1783250628        3.6241830375        1.9445194697
 N         -2.1843397976        1.4069988890       -3.8926510943
 N          4.3173726597        1.0729599497       -1.8597408056
 N          3.5549847108       -1.1924467878       -3.3774069311
 H          1.2918715530       -7.1446761838        3.8238269583
 H          2.7840000977       -7.7377075864        3.0874172372
 H          0.8005349683       -8.1877897931        1.6341165532
 H          1.9505289053       -7.1067973001        0.8425070028
 H         -2.8699575081        5.3787729852        5.5766088430
 H         -3.9618318647        4.2425180661        6.3755092542
 H         -4.5971747873        3.2805253252        4.1861808620
 H         -4.8918407581        5.0222725719        4.1935504100
 H         -2.9751312446        5.6615944035       -3.4128894257
 H         -4.7019239008        5.9706925018       -3.2049684003
 H         -4.1874724891        5.1682625808       -5.5125574614
 H         -5.2429272432        4.0395115377       -4.6561137759
 H          8.6469535856       -0.1216967255       -2.5653750092
 H          7.6268636965       -1.3405475780       -1.7956898772
 H          7.9821337554       -1.9117925016       -4.1783031123
 H          7.3558962283       -0.3333899356       -4.6653390789
 H          3.0908529425       -5.4486103686        4.0190901503
 H          3.3090960999       -5.4557246326        2.2665651015
 H         -0.3560095791       -6.2619694282        0.5599811144
 H         -0.5882774506       -6.2485182113        2.3122996329
 H         -2.6263001926        2.3312524143        5.5239403904
 H         -1.6104843545        3.4322745414        6.4595375766
 H         -2.7462611793        5.4113600544        3.0077884956
 H         -3.7701779894        4.3042261599        2.0883501361
 H         -4.9872815525        3.7619059469       -2.1107249983
 H         -3.7659946385        4.7186714226       -1.2657340094
 H         -2.2130043971        3.7677557716       -4.9651592168
 H         -3.4280152209        2.8195705716       -5.8275366144
 H          6.6853325133        1.3672987563       -2.8567217695
 H          6.8857354835        0.9332008568       -1.1556921883
 H          5.7898769143       -2.4950469426       -3.1745619718
 H          5.5963516670       -2.0673656772       -4.8770763737
 H          0.2913630677        0.0172465572        4.1530552187
 H         -0.3281152053       -0.5162836558       -0.6351627438
 H          1.3220539865        0.8913096923        0.6941385488
 H          0.2030809562        0.7604757780       -4.0772346934
 H          3.9347325696       -1.5036400139        2.5002883775
 H         -2.5107943643       -2.7380277730        2.2862865949
 H          3.3765368142        2.7235143594        2.9778684483
 H         -4.1711674461        0.8570726940        0.6059968692
 H         -0.0604662607        4.8715192427        0.0229020493
 H         -2.3759943204       -2.3584290114       -2.7141317216
 H          3.3325144464        3.3625413615       -2.1500660219
 H          1.8570978149       -3.0228986437       -2.9527191685
 H          0.5940809677       -2.3607669097        3.9969200195
 H          0.6265326906       -2.5237456789        0.2273825051
 H          1.2459071223        3.6048901092        3.6862763360
 H         -1.1156879592        1.5934485626       -1.4289304427
 H         -0.6836192344        1.6179801199        1.7671630098
 H         -3.3052480159       -0.1973559134       -3.1960098904
 H          3.2346963228        0.0177676232       -0.4419575502
 H          2.5897570400        0.4309361624       -4.2313825867
 H          0.7570641040       -4.6107819262        3.7381773565
 H          1.4469774427       -4.5629879978        0.7627054447
 H         -0.7675930770        4.4710906068        4.3537408654
 H         -2.4948977155        2.3574382675        2.9831167572
 H         -1.9541834155        3.4806203734       -2.4446503001
 H         -4.2314285741        1.8563821556       -3.6711858122
 H          5.1237800903       -0.8086607184       -1.3690994446
 H          4.8572364830        0.2261949235       -4.2323166184
 C         -5.3395185229       -2.8819753501       -1.5961502782
 C         -6.4376493378       -3.3468714440       -0.6387864330
 O         -4.0652552186       -2.9360010678       -0.9717710610
 C         -3.8035189075       -4.2469985495       -0.4859004074
 C         -4.9061698720       -4.7028127499        0.4684842081
 O         -6.1684682002       -4.6568442065       -0.1743087349
 H         -5.4944058015       -1.8422725578       -1.8868526777
 H         -6.5016973437       -2.6587092923        0.2157677745
 H         -3.7437399825       -4.9439062855       -1.3335179957
 H         -4.9250281348       -4.0552686042        1.3556687753
 H         -7.3997346593       -3.3927758702       -1.1491260785
 H         -2.8401521668       -4.1993562981        0.0213995589
 H         -4.7502860493       -5.7387113059        0.7682056600
 H         -5.3361799239       -3.5251326726       -2.4884758437