142
-211.13195278
 C          1.6330548083       -6.6854834636        3.0494137628
 C          0.7039213753       -6.8144468733        1.8465813096
 C         -2.1922603996        5.2103342217        6.3195632168
 C         -3.2452752341        5.0995361971        5.2215251791
 C         -3.9584141418        5.9457956061       -2.7230336541
 C         -4.5474001750        5.2910764581       -3.9685970581
 C          6.3024900757       -1.7360336538       -2.9510795609
 C          5.7121662533       -2.3367428929       -4.2223576770
 C          2.3382760611       -5.3341076321        3.0322508822
 C         -0.3147179543       -5.6813922071        1.8392568610
 C         -1.1974183494        4.0591297083        6.2228639852
 C         -2.5828483013        5.0817528291        3.8485683321
 C         -3.9884477910        4.9767682726       -1.5463220904
 C         -3.7909500621        4.0116337179       -4.3081085637
 C          5.5042501952       -0.5106032750       -2.5242211590
 C          4.2482690817       -2.7020283000       -4.0022024938
 C          1.6181783312        0.5041347008        3.9100796887
 C         -1.5436323812       -0.2034293004        0.2606875078
 C          1.0521881360        1.7082711285        0.4640516582
 C         -1.1583563213       -0.2529001445       -3.3959935880
 C          3.4193442920       -0.4829920870        2.6520360458
 C         -2.5823940289       -1.2724869722        2.1505452774
 C          3.3136766974        1.9136367896        2.9400955665
 C         -3.4573477582        0.8179334909        1.3066188804
 C          0.4541908561        3.9864469811       -0.0393285507
 C         -2.8952648866       -1.5931809133       -2.4059734868
 C          1.9447216963        2.7701371759       -1.5034612033
 C         -0.6642725698       -2.4933539908       -2.6613866790
 C          1.6312424745       -1.9366522407        3.5636828089
 C         -0.6206125275       -2.3400107668        1.0753783333
 C          1.3948564420        2.9637420243        4.0740111955
 C         -2.3925490526        1.9176982272       -0.6451488199
 C         -0.4740532882        2.8960764576        1.9839562811
 C         -3.3806451730        0.7530911207       -2.9739859408
 C          2.5946987945        0.4367663941       -0.9814988780
 C          1.1463638018       -1.0634566109       -3.6055386530
 C          2.2410486588       -0.6246315499        3.3899863940
 C         -1.5956195325       -1.2613601955        1.1630856808
 C          2.1360354555        1.7769788077        3.6739256947
 C         -2.4663315477        0.8376262023        0.3260374928
 C          0.3495854656        2.8669519493        0.7851010020
 C         -2.4775200603       -0.3874237255       -2.9673307723
 C          1.8564775709        1.6533278898       -0.6702956563
 C         -0.2439721606       -1.2894687768       -3.2347207423
 C          3.9381915041        0.7798699992        2.4513728976
 C         -3.4915189556       -0.2334396505        2.2040426440
 C          1.2405939110        3.9122014985       -1.1741159061
 C         -1.9823980012       -2.6241097940       -2.2726363086
 C          1.3277417992       -4.1877000174        3.0279241910
 C          0.3834011470       -4.3204334027        1.8058018833
 C         -0.5128175083        4.0391305970        4.8585597681
 C         -1.5948972954        3.9251325122        3.7349086161
 C         -3.2185292085        3.7011064624       -1.8723410518
 C         -3.8330901926        3.0261872338       -3.1432217128
 C          4.0312435331       -0.8612675996       -2.2962148517
 C          3.4346668039       -1.4777573154       -3.5875688021
 Br         5.5444839056        0.9766910385        1.4360370669
 Br        -4.8313091132       -0.2415836370        3.5656909306
 Br         1.3445865603        5.4317615799       -2.3264586513
 Br        -2.5613851108       -4.2601832693       -1.4845114348
 N          2.0193263039       -2.9406777877        2.9036419670
 N         -0.6007924870       -3.2902403051        1.9041988830
 N          0.3107858543        2.8858287940        4.7224027171
 N         -3.3180899632        2.7667038041       -0.7970274443
 N         -0.9146435052        3.9726583462        2.4801320357
 N         -3.0234572907        1.8862554834       -3.4111629109
 N          3.3168841058        0.3417345433       -2.0110379262
 N          2.0812349463       -1.8565375288       -3.2979662484
 H          1.0525008713       -6.7809772025        3.9697015581
 H          2.3772752166       -7.4836080074        3.0361022396
 H          0.1801636455       -7.7711094021        1.8774469274
 H          1.2902816821       -6.7793246968        0.9259863384
 H         -1.6602453243        6.1593000417        6.2200215912
 H         -2.6713339755        5.1936784805        7.2997910014
 H         -3.8194318174        4.1805048372        5.3589992555
 H         -3.9369649300        5.9413103897        5.2808814312
 H         -2.9264524256        6.2431857735       -2.9219785713
 H         -4.5249746894        6.8432538321       -2.4697547128
 H         -4.4924936861        5.9794156552       -4.8134425856
 H         -5.5995725121        5.0548063273       -3.7934839715
 H          7.3415921043       -1.4483829043       -3.1178042198
 H          6.2827771567       -2.4797027042       -2.1515698208
 H          6.2696445324       -3.2296579433       -4.5096765745
 H          5.7892500384       -1.6137614754       -5.0373004567
 H          2.9826950837       -5.2283273349        3.9074772160
 H          2.9623518021       -5.2454146710        2.1413789741
 H         -0.9676828395       -5.7574997642        0.9681261237
 H         -0.9388389023       -5.7262708080        2.7331460007
 H         -1.7070806458        3.1051471528        6.3672585903
 H         -0.4306184844        4.1524517989        6.9947073011
 H         -2.0449725607        6.0149167085        3.6735171096
 H         -3.3341263339        4.9728418390        3.0641739360
 H         -5.0171169516        4.7073232738       -1.3013002167
 H         -3.5411090785        5.4358185843       -0.6628982214
 H         -2.7472028887        4.2371095243       -4.5328192794
 H         -4.2292993947        3.5314865283       -5.1854436268
 H          5.5561343693        0.2611380082       -3.2937851625
 H          5.9094769986       -0.0926953747       -1.6008127954
 H          4.1669652565       -3.4543068721       -3.2162294222
 H          3.8174778981       -3.1158503382       -4.9159317504
 H          0.7049568354        0.4205146860        4.4786477866
 H         -0.7831624521       -0.1906222731       -0.5072711239
 H          0.9768565356        0.8457324129        1.1109045212
 H         -0.8566876854        0.6889767989       -3.8275848263
 H          3.8951663176       -1.3643987220        2.2528834834
 H         -2.6146111411       -2.0955786363        2.8460393828
 H          3.7258319494        2.8927043539        2.7473642216
 H         -4.1702484606        1.6257427454        1.3465437862
 H         -0.0875196394        4.8810980385        0.2219011087
 H         -3.9131643892       -1.7151596617       -2.0673677178
 H          2.5647907545        2.7162935072       -2.3837108813
 H          0.0344697045       -3.3041506007       -2.5335929120
 H          0.7947663127       -1.9846665377        4.2745167668
 H          0.0927915922       -2.2690428463        0.2388950012
 H          1.8050327714        3.9248686900        3.7304761476
 H         -1.4732966602        1.9394063468       -1.2488248295
 H         -0.6813192470        1.9135608372        2.4330272498
 H         -4.3686027207        0.5850024920       -2.5205599210
 H          2.4853598566       -0.3846393748       -0.2556174590
 H          1.3372112790       -0.1223738098       -4.1402363127
 H          0.6995064453       -4.2169357346        3.9343846141
 H          0.9908108916       -4.2223193010        0.8888253395
 H          0.0471026532        4.9746490965        4.6849951449
 H         -2.1032175889        2.9586600273        3.8849473525
 H         -2.1672459745        3.9279458617       -2.1140764891
 H         -4.8735257970        2.7494651021       -2.8987901223
 H          3.9308435667       -1.6024760054       -1.4836400042
 H          3.4769617809       -0.7008431705       -4.3692318462
 C          1.5699293386       -5.3597266485       -3.7298680735
 C          1.1150594319       -5.5837128181       -5.1725185707
 O          0.4922109810       -5.5640883309       -2.8290637324
 C         -0.0548148277       -6.8624123386       -2.9874223929
 C         -0.5121108630       -7.0794924772       -4.4301697604
 O          0.5644156904       -6.8799257741       -5.3313645040
 H          1.9020736381       -4.3302705111       -3.5858450469
 H          0.3630268415       -4.8280297608       -5.4440512031
 H          0.7039421317       -7.6133755198       -2.7254288607
 H         -1.3259265690       -6.3794391856       -4.6681242038
 H          1.9599880488       -5.5267117523       -5.8588296051
 H         -0.8979891845       -6.9266700543       -2.2999377457
 H         -0.8504132167       -8.1045222455       -4.5804228012
 H          2.3827408936       -6.0598364367       -3.4896303442