142
-211.12917592
 C          5.2025551450       -5.9611871220        3.4187647845
 C          4.5077352329       -6.5415275667        2.1912040252
 C         -3.9122196650        2.8618678066        5.8182583332
 C         -4.7032757275        2.2963413068        4.6430188947
 C         -5.2420565535        2.5292060687       -3.1391349877
 C         -5.4098128535        1.6306968028       -4.3601556566
 C          7.5139031797        0.2577936051       -2.5788231601
 C          7.2920036308       -0.5565035672       -3.8492602422
 C          5.2041190159       -4.4381233805        3.3568031126
 C          3.0838037645       -6.0091403980        2.0851591923
 C         -2.5006421468        2.2862722662        5.8373986264
 C         -3.9890936192        2.5903880448        3.3285328111
 C         -4.8748636281        1.6981449604       -1.9151041540
 C         -4.1353333955        0.8346985501       -4.6182642691
 C          6.2686986533        1.0701336001       -2.2445712136
 C          6.0846852101       -1.4728094934       -3.6870593147
 C          1.8146130619        0.4206842501        3.8967639535
 C         -0.4323783169       -1.7326489539        0.2206698309
 C          1.0490822913        1.2103238186        0.3672767313
 C          0.1447389330       -1.6369216087       -3.4254199908
 C          3.9526262280        0.3529044065        2.7895230751
 C         -0.9713178568       -3.1231752857        2.1102202375
 C          2.7384267037        2.4352783738        2.9534483153
 C         -2.6562803011       -1.6831292495        1.1435946164
 C         -0.4166337701        3.0214065666       -0.2421444416
 C         -0.7940662890       -3.6388298466       -2.4701735974
 C          1.5845491451        2.5917622821       -1.5298987411
 C          1.6030412254       -3.3793177153       -2.6262810848
 C          2.9750597064       -1.7428926432        3.6814816999
 C          1.3178799327       -3.1918473881        1.1617522957
 C          0.4765458017        2.5026103047        3.9277646122
 C         -2.1064035872       -0.2558746224       -0.8090029734
 C         -0.9685386848        1.6018506903        1.7157058175
 C         -2.3050244351       -1.8035065183       -3.1190764673
 C          3.1080272187        0.7388509181       -0.9040830193
 C          2.5820001838       -1.2865531595       -3.5242346302
 C          2.9222287848       -0.3023085432        3.4691687657
 C         -0.0456146972       -2.6798376412        1.1639321628
 C          1.7057712169        1.7841691386        3.6270490364
 C         -1.7309103087       -1.2296804369        0.2042288852
 C         -0.1090691780        1.9495072639        0.5947963534
 C         -0.9711483815       -2.3803306983       -3.0435124327
 C          1.9018929685        1.5257111723       -0.6861401328
 C          1.4296520053       -2.1194742817       -3.2056293309
 C          3.8463921122        1.7086537879        2.5548200525
 C         -2.2560935009       -2.6154658335        2.0830015664
 C          0.4322177799        3.3163513686       -1.2930568109
 C          0.4899665522       -4.1183699369       -2.2808664804
 C          3.7805705358       -3.8913676853        3.2575138970
 C          3.0736390397       -4.4810526438        2.0098504472
 C         -1.7670510335        2.5906572191        4.5337972729
 C         -2.5799730922        2.0066555426        3.3313258388
 C         -3.5932819952        0.9063976643       -2.1544813792
 C         -3.7657703317       -0.0163666018       -3.4064349166
 C          5.0512296734        0.1604268644       -2.0679347896
 C          4.8265778764       -0.6702760992       -3.3576548816
 Br         5.2508849169        2.6058950312        1.6204393830
 Br        -3.5175224959       -3.2105482188        3.3890239645
 Br        -0.0106640494        4.7641908654       -2.4581066568
 Br         0.7242545226       -5.8382687384       -1.4824880284
 N          3.8254042428       -2.4697668341        3.0958042352
 N          1.7213301013       -4.0223033757        2.0208896807
 N         -0.5014547407        1.9395159140        4.5011042396
 N         -3.3092197181        0.0600192572       -1.0404234937
 N         -1.8873794362        2.3636620521        2.1346223742
 N         -2.5049958190       -0.6489446399       -3.5979780998
 N          3.8912502711        0.9684957215       -1.8655078098
 N          3.7399981763       -1.5677575216       -3.1067721757
 H          4.6806405299       -6.2877653643        4.3209820411
 H          6.2304520368       -6.3235506483        3.4741408298
 H          4.4818772318       -7.6304730730        2.2542382034
 H          5.0655344172       -6.2692258390        1.2925308157
 H         -3.8595370911        3.9496798065        5.7325924346
 H         -4.4142605689        2.6214408672        6.7567490101
 H         -4.8111303065        1.2160113882        4.7631721717
 H         -5.7023782385        2.7342848534        4.6197395716
 H         -4.4514733535        3.2586865613       -3.3309045471
 H         -6.1680329526        3.0714172130       -2.9439352078
 H         -5.6436035153        2.2332987151       -5.2391830864
 H         -6.2412624332        0.9423164027       -4.1929192252
 H          8.3610262615        0.9330348970       -2.7086578235
 H          7.7429747424       -0.4145078446       -1.7491033236
 H          8.1765218521       -1.1564916613       -4.0696263581
 H          7.1248186648        0.1197435035       -4.6905600497
 H          5.6770754093       -4.0199534864        4.2477617950
 H          5.7655767326       -4.0961688559        2.4856888603
 H          2.5919218020       -6.4053410759        1.1947794414
 H          2.5000764925       -6.3134209294        2.9552853581
 H         -2.5349771247        1.2036384149        5.9695288799
 H         -1.9277961671        2.7092823177        6.6652185103
 H         -3.9176524444        3.6671465613        3.1667077745
 H         -4.5404703618        2.1587110771        2.4913370650
 H         -5.6770359030        0.9978192901       -1.6778551384
 H         -4.7253245331        2.3446225322       -1.0486513781
 H         -3.3045405776        1.5092172658       -4.8320901449
 H         -4.2645383038        0.1749501168       -5.4789034492
 H          6.0533194168        1.7794522670       -3.0451550143
 H          6.4167683586        1.6371326927       -1.3235450809
 H          6.2583302410       -2.1868931078       -2.8802497539
 H          5.9076933288       -2.0377545602       -4.6045982410
 H          1.0034665501       -0.0641539984        4.4175371357
 H          0.2791322687       -1.3875076361       -0.5160906033
 H          1.2901544430        0.3871488322        1.0248310575
 H         -0.0147449003       -0.6647214617       -3.8654504463
 H          4.8077011600       -0.2162737274        2.4617440697
 H         -0.6626118144       -3.8556435301        2.8385063109
 H          2.6680372691        3.4905126565        2.7364338949
 H         -3.6606073067       -1.2917929034        1.1194436609
 H         -1.3124806766        3.5912830698       -0.0550810136
 H         -1.6484118208       -4.2256001602       -2.1678662200
 H          2.2492853643        2.8271725197       -2.3453552358
 H          2.6034611179       -3.7453075235       -2.4596852450
 H          2.2101459421       -2.1546947089        4.3542625534
 H          1.9681326828       -2.8055697877        0.3606167983
 H          0.4305947650        3.5443232814        3.5776877788
 H         -1.2673319111        0.1811909411       -1.3704208038
 H         -0.7560750431        0.6287459859        2.1824501478
 H         -3.1156421441       -2.4071380012       -2.6851518583
 H          3.2885235765       -0.0646936420       -0.1722534465
 H          2.3709675978       -0.3859307346       -4.1172803004
 H          3.1871867351       -4.1829778641        4.1406055528
 H          3.6178657444       -4.1338677951        1.1137546556
 H         -1.6801053537        3.6797097915        4.3754344996
 H         -2.6084492245        0.9136810528        3.4721703452
 H         -2.7501085622        1.5816040024       -2.3755473215
 H         -4.5658420260       -0.7405657214       -3.1743836083
 H          5.2120866214       -0.5439409074       -1.2326483647
 H          4.5913640752        0.0387460593       -4.1694502553
 C         -8.8460734521        5.5050350850       -4.8151823071
 C         -9.1495372171        4.5250068066       -3.6802486974
 O         -8.5735312061        6.7967985503       -4.2985956862
 C         -7.4932900001        6.7495174875       -3.3811522417
 C         -7.7969289990        5.7719737678       -2.2443580550
 O         -8.0724244722        4.4795378770       -2.7594663822
 H         -9.7069213836        5.6155257008       -5.4746934552
 H        -10.0651812700        4.8385152682       -3.1586889525
 H         -6.5795495888        6.4337404592       -3.9047762339
 H         -8.6640909110        6.1308821892       -1.6718569947
 H         -9.2676064638        3.5107992900       -4.0620364380
 H         -7.3717087440        7.7637661159       -3.0008270436
 H         -6.9358600242        5.6606850975       -1.5854375946
 H         -7.9781766858        5.1483397123       -5.3882352661