142
-211.12989626
 C          1.8198207400       -6.8824997274        2.9674147862
 C          0.9339801371       -7.1480953108        1.7545232725
 C         -3.6056333001        4.4249595027        6.0102856982
 C         -4.6063463175        4.1774893885        4.8859179516
 C         -5.3275881426        4.8418933763       -2.9958832125
 C         -5.8238253087        4.1009539785       -4.2334689053
 C          5.8614429718       -1.7041613981       -2.8833533558
 C          5.3635505818       -2.3436197751       -4.1752726901
 C          2.3412293792       -5.4504452346        2.9392044841
 C         -0.2247800798       -6.1591319336        1.7162816320
 C         -2.4686550976        3.4113040736        5.9458425578
 C         -3.9112850774        4.2410852366        3.5304798858
 C         -5.2358592285        3.8915870048       -1.8072515209
 C         -4.9053317296        2.9279963893       -4.5574406461
 C          4.9692440149       -0.5316605711       -2.4957480492
 C          3.9169046247       -2.8000935462       -4.0206214456
 C          0.8485534084        0.2489351421        3.7352169104
 C         -2.1548170233       -0.9061964729        0.0737896848
 C          0.2034929312        1.3062107367        0.2906386238
 C         -1.7155994076       -0.9173439748       -3.5876593472
 C          2.7918779883       -0.5035927325        2.5276775819
 C         -3.0555781584       -2.0764577348        1.9747042441
 C          2.3644930467        1.8609213294        2.7839891998
 C         -4.1896930766       -0.1279885234        1.1001790885
 C         -0.5954847651        3.5145622775       -0.2421665049
 C         -3.2664816119       -2.4960996870       -2.6366969467
 C          1.0828080149        2.4618076246       -1.6289847690
 C         -0.9345010114       -3.0813144798       -2.8744114516
 C          1.1902485140       -2.1712522464        3.4217263415
 C         -0.9648705277       -2.8917772546        0.9206781853
 C          0.2980214594        2.6577368685        3.8659081091
 C         -3.2629326853        1.0792444490       -0.8586749074
 C         -1.4947411964        2.3274763006        1.7423914069
 C         -4.0608733437       -0.2316719669       -3.1932806896
 C          1.9225842836        0.1939061032       -1.0800113855
 C          0.6887039840       -1.4308636632       -3.7594360398
 C          1.6262607449       -0.7924823284        3.2422446789
 C         -2.0739329494       -1.9502701035        0.9901351020
 C          1.1987336897        1.5767309259        3.4942447334
 C         -3.2041246845        0.0079627722        0.1233076206
 C         -0.6264490772        2.3869046738        0.5772180360
 C         -3.0096421132       -1.2377854654       -3.1796301895
 C          1.0628485520        1.3362913659       -0.8032967843
 C         -0.6737792767       -1.8228406214       -3.4232016578
 C          3.1439518619        0.8149151405        2.3229889354
 C         -4.0922549296       -1.1636728972        2.0111693915
 C          0.2524196419        3.5262030927       -1.3344161472
 C         -2.2252567157       -3.3973810678       -2.5025962420
 C          1.1884298136       -4.4476402225        2.9081778767
 C          0.2852415912       -4.7169466135        1.6774596221
 C         -1.7517197648        3.4770412129        4.5997431325
 C         -2.7811657872        3.2201138119        3.4500760174
 C         -4.3065362700        2.7222516857       -2.1159438943
 C         -4.8192322239        1.9585684951       -3.3814286178
 C          3.5157688822       -0.9781119501       -2.3254814672
 C          3.0104361874       -1.6313739464       -3.6370524808
 Br         4.7348483040        1.2115191124        1.3443748769
 Br        -5.4267658957       -1.3280255064        3.3687901082
 Br         0.2663754855        5.0582824227       -2.4758810560
 Br        -2.5823565687       -5.1137413427       -1.7425637393
 N          1.7123979076       -3.1220646619        2.7755876937
 N         -0.8292604489       -3.8272637690        1.7554344807
 N         -0.7805829781        2.4414064950        4.4919302027
 N         -4.2925742916        1.7934207332       -1.0313632495
 N         -2.0774585163        3.3462176118        2.2139321788
 N         -3.8599559265        0.9374602459       -3.6349691986
 N          2.7034803087        0.1680194824       -2.0699101967
 N          1.6851057644       -2.1112852197       -3.3871877478
 H          1.2430929296       -7.0415412004        3.8812793900
 H          2.6624442720       -7.5759157688        2.9755492247
 H          0.5392566065       -8.1645227238        1.7931130340
 H          1.5255477182       -7.0507300946        0.8415745535
 H         -3.1975971591        5.4342678049        5.9194510589
 H         -4.1044462414        4.3487986145        6.9777621364
 H         -5.0616084243        3.1928200039        5.0139324727
 H         -5.4014243925        4.9238481144        4.9225009937
 H         -4.3416980025        5.2670335856       -3.1971433088
 H         -6.0056122516        5.6620254973       -2.7545725722
 H         -5.8586173496        4.7802904671       -5.0866397169
 H         -6.8361129286        3.7308579839       -4.0551944704
 H          6.8858466830       -1.3506512158       -3.0070993405
 H          5.8523667349       -2.4468604948       -2.0822975166
 H          5.9891573548       -3.1993037822       -4.4341275006
 H          5.4317206069       -1.6188101011       -4.9893422212
 H          2.9546681429       -5.2496290092        3.8199791352
 H          2.9599559688       -5.2912036895        2.0544295504
 H         -0.8476392292       -6.3324960766        0.8366581948
 H         -0.8524433936       -6.2770297395        2.6009452894
 H         -2.8548917468        2.3999129518        6.0823160602
 H         -1.7409396708        3.6042962345        6.7367759633
 H         -3.4931498982        5.2350090082        3.3632555358
 H         -4.6218078469        4.0341531399        2.7281183876
 H         -6.2218343228        3.4947063724       -1.5601274061
 H         -4.8532307862        4.4152950611       -0.9293526020
 H         -3.8997760615        3.2860012148       -4.7841820671
 H         -5.2747320744        2.3843720883       -5.4294433502
 H          5.0036744448        0.2405401800       -3.2654706041
 H          5.3066967645       -0.0875780820       -1.5578718532
 H          3.8428255793       -3.5624374973       -3.2431470834
 H          3.5506711243       -3.2338451096       -4.9534931036
 H         -0.0581591206        0.0509834116        4.2855830036
 H         -1.3993425805       -0.8053958235       -0.6925328019
 H          0.1848071815        0.4379924471        0.9340090895
 H         -1.5381160812        0.0625417947       -4.0030659800
 H          3.3895356845       -1.3176794511        2.1499731147
 H         -2.9838682094       -2.8867840435        2.6821547589
 H          2.6484207470        2.8841175880        2.5886046643
 H         -5.0011659882        0.5813492531        1.1273098130
 H         -1.2374134996        4.3487892605       -0.0093171771
 H         -4.2629851305       -2.7580659241       -2.3143208348
 H          1.7492519358        2.4756093310       -2.4762769978
 H         -0.1198003531       -3.7765759397       -2.7501900239
 H          0.3591361739       -2.3215388171        4.1245466571
 H         -0.2571155803       -2.7299225935        0.0920193682
 H          0.5854131511        3.6623950011        3.5224306277
 H         -2.3463480783        1.2201983797       -1.4503006194
 H         -1.5993284920        1.3305142549        2.1956003203
 H         -5.0191927345       -0.5320798806       -2.7446197931
 H          1.8450554966       -0.6410585443       -0.3651950407
 H          0.7915368408       -0.4909665030       -4.3190741465
 H          0.5580880728       -4.5489572276        3.8078998472
 H          0.8865176623       -4.5435368956        0.7673984410
 H         -1.3147846065        4.4772576987        4.4344213201
 H         -3.1658771679        2.1972645741        3.5952206461
 H         -3.2916843064        3.0803108069       -2.3547758126
 H         -5.8134857477        1.5453838245       -3.1376371170
 H          3.4341148650       -1.7271444233       -1.5177288439
 H          3.0229240422       -0.8536325033       -4.4191933307
 C          9.7373599805        0.2767321611       -0.4935498720
 C          9.8594314979       -0.6384347201       -1.7135217181
 O         10.0148127770        1.6202483394       -0.8518675284
 C          9.1389103052        2.0510006008       -1.8804154882
 C          9.2585073740        1.1380010921       -3.1023423710
 O          8.9911725736       -0.2089050573       -2.7490609637
 H         10.4679834623        0.0076033872        0.2693654520
 H         10.8968278341       -0.6288711868       -2.0778012236
 H          8.1042045324        2.0410543200       -1.5093255119
 H         10.2734891575        1.2125892334       -3.5187177084
 H          9.5607836333       -1.6574722401       -1.4677301921
 H          9.4359006945        3.0705434625       -2.1266449636
 H          8.5244969364        1.4060162878       -3.8621028478
 H          8.7208646677        0.2094568307       -0.0804651384