142
-211.13073477
 C          0.6217566837       -6.9032448226        2.4700592164
 C         -0.1339039534       -6.9317441374        1.1455316067
 C         -3.3416120670        4.9763785087        5.7529241945
 C         -4.1985601060        4.9724909197        4.4910421919
 C         -3.8411845406        6.2007548533       -3.2182358135
 C         -4.2976708668        5.6264740683       -4.5555928924
 C          6.0753950506       -2.1803922087       -2.4715461212
 C          5.6135619286       -2.6600221993       -3.8437883246
 C          1.3455003311       -5.5723770427        2.6382037016
 C         -1.1205336573       -5.7726606506        1.0727113645
 C         -2.3893792582        3.7858007851        5.7545760109
 C         -3.3166885977        4.9938833045        3.2475517578
 C         -4.0423097784        5.1803578072       -2.1034033435
 C         -3.5430370871        4.3393248057       -4.8686821893
 C          5.3729304020       -0.8789640304       -2.1048937411
 C          4.1021766100       -2.8556024348       -3.8491560712
 C          0.6520264864        0.2327289652        3.7388489767
 C         -2.0051960733       -0.1701326975       -0.2921105277
 C          0.6768984648        1.5944213446        0.3246091184
 C         -1.1394466506       -0.0362478321       -3.8583940213
 C          2.5863320079       -0.7603865073        2.7012133828
 C         -3.3119589096       -1.3090968073        1.3778408323
 C          2.5150050760        1.6208953284        3.1030477094
 C         -4.0131523985        0.8542704447        0.5550886135
 C          0.3400308977        3.9397376774       -0.1060458437
 C         -3.0274952848       -1.3849347158       -3.2109360769
 C          1.9912671898        2.6980785241       -1.3629403942
 C         -0.8089489120       -2.3404347265       -3.2390595770
 C          0.6425414022       -2.1875464884        3.2677127670
 C         -1.2505529219       -2.3764693967        0.5055723115
 C          0.4836980566        2.6889693036        3.9966494581
 C         -2.6692397942        2.0262207203       -1.1706927310
 C         -1.0125772969        2.8044816453        1.6366278113
 C         -3.3759525759        1.0090714019       -3.6703414959
 C          2.3529561063        0.2851463775       -0.9222838557
 C          1.1536179840       -0.9427562416       -3.8147080802
 C          1.3093839719       -0.8919671522        3.2540063267
 C         -2.2032472815       -1.2750992094        0.5302018855
 C          1.2383476337        1.4945042802        3.6489986844
 C         -2.9006020789        0.8964332836       -0.2843450831
 C          0.0078027355        2.7842954628        0.6001585200
 C         -2.5079304200       -0.1576766373       -3.6208275493
 C          1.6693387228        1.5420951215       -0.6494564119
 C         -0.2847206586       -1.1133377283       -3.6543108485
 C          3.1684636440        0.4894856804        2.6478173477
 C         -4.1931548957       -0.2447727807        1.3747736473
 C          1.3204042950        3.8721081474       -1.0788714321
 C         -2.1689292144       -2.4557006610       -3.0363997614
 C          0.3672616320       -4.4002929833        2.5727529523
 C         -0.4015011123       -4.4308261592        1.2267167634
 C         -1.4864833038        3.8053356954        4.5239878763
 C         -2.3677669289        3.7999170963        3.2314823190
 C         -3.2800229288        3.8929167122       -2.3993130032
 C         -3.7511631105        3.3012561442       -3.7691115753
 C          3.8556302663       -1.0730818857       -2.0881342512
 C          3.3798408817       -1.5604798786       -3.4808690557
 Br         4.9118620571        0.6750440989        1.8902932260
 Br        -5.7012573270       -0.2847685161        2.5473748288
 Br         1.7508523435        5.4499456653       -2.0666862186
 Br        -2.8871340459       -4.1300109432       -2.4620723379
 N          1.0984508292       -3.1712815992        2.6209650729
 N         -1.3708273315       -3.3824217186        1.2567346484
 N         -0.6932585468        2.6247654216        4.4579239343
 N         -3.5451907769        2.9102981296       -1.3975332750
 N         -1.4833139041        3.8775951248        2.1128421908
 N         -2.9413475253        2.1524896950       -3.9960603820
 N          3.2251673877        0.1816730504       -1.8273835733
 N          1.9727355937       -1.8072531164       -3.3952829419
 H         -0.0822048046       -7.0403236662        3.2939156143
 H          1.3456654588       -7.7192115641        2.5066841984
 H         -0.6752949430       -7.8733600476        1.0422390678
 H          0.5755840415       -6.8575538379        0.3184132557
 H         -2.7644853130        5.9028001330        5.7988175719
 H         -3.9789300166        4.9319944887        6.6374981856
 H         -4.8223690990        4.0758896255        4.4776623986
 H         -4.8577440764        5.8419690874        4.4843605468
 H         -2.7836830945        6.4676593513       -3.2788686407
 H         -4.4048402468        7.1063409462       -2.9885162967
 H         -4.1238792516        6.3514418169       -5.3523548542
 H         -5.3694383008        5.4185315835       -4.5163116228
 H          7.1550481089       -2.0209048335       -2.4720308196
 H          5.8369245120       -2.9379815859       -1.7224517381
 H          6.1022508022       -3.6023156413       -4.0976542530
 H          5.8890018393       -1.9228711683       -4.6017969041
 H          1.8669159264       -5.5387924464        3.5972090534
 H          2.0839252599       -5.4397941476        1.8458366633
 H         -1.6481956932       -5.7781184187        0.1171436353
 H         -1.8636940139       -5.8571209967        1.8670883183
 H         -2.9519871950        2.8508186656        5.7554861701
 H         -1.7603772921        3.8021556650        6.6470348060
 H         -2.7227974581        5.9088099344        3.2176632537
 H         -3.9303257995        4.9596102678        2.3455660115
 H         -5.1009354390        4.9392710993       -1.9943843575
 H         -3.6873463697        5.5814134729       -1.1523867022
 H         -2.4739432740        4.5390704555       -4.9573066524
 H         -3.8869978191        3.9164582611       -5.8148626489
 H          5.6139730974       -0.0976150760       -2.8277829344
 H          5.6910964124       -0.5348464819       -1.1191167706
 H          3.8219562093       -3.6199905975       -3.1229419117
 H          3.7599425631       -3.1795282863       -4.8343423567
 H         -0.3369651138        0.1569319075        4.1635881980
 H         -1.1506481865       -0.1401482678       -0.9531208380
 H          0.4256049428        0.7033329158        0.8822308163
 H         -0.7576093831        0.9227270575       -4.1727687790
 H          3.0853179085       -1.6386268042        2.3239663819
 H         -3.4571627942       -2.1680914980        2.0129019743
 H          2.9816776789        2.5914238451        3.0262715967
 H         -4.7042312918        1.6817767110        0.5504153509
 H         -0.1791871589        4.8577003570        0.1177552665
 H         -4.0847912314       -1.4936782718       -3.0214793569
 H          2.7599273381        2.6481591545       -2.1172151325
 H         -0.1374005428       -3.1694119251       -3.0831393379
 H         -0.2912473454       -2.2401400399        3.8444617043
 H         -0.4221747973       -2.2701906651       -0.2129342101
 H          0.9762644021        3.6481616630        3.7792765121
 H         -1.6755494394        2.0526256201       -1.6417732172
 H         -1.3404446850        1.8147595384        1.9874716379
 H         -4.4165819748        0.8466583720       -3.3529926710
 H          2.0567882117       -0.5642916857       -0.2863503329
 H          1.4746712096       -0.0050745735       -4.2890664603
 H         -0.3797107608       -4.4649829207        3.3819459245
 H          0.3320609698       -4.2889403100        0.4132261203
 H         -0.8720972966        4.7222522360        4.5008130990
 H         -2.9302774456        2.8518061326        3.2382047896
 H         -2.1998880905        4.0904992567       -2.4969582792
 H         -4.8199916895        3.0443594171       -3.6671832676
 H          3.5766094958       -1.8391434563       -1.3437495219
 H          3.6100060248       -0.7619010710       -4.2066258605
 C          6.0546433575       -4.3147630402        1.0720301209
 C          7.3679603230       -5.0430867556        0.7819690013
 O          5.1215837334       -4.5306950153        0.0252434446
 C          4.8960063532       -5.9179354939       -0.1618828028
 C          6.2105168835       -6.6412779590       -0.4579310306
 O          7.1399036374       -6.4294329077        0.5912915814
 H          6.2153326950       -3.2381968617        1.1253435602
 H          7.8329229638       -4.6197496120       -0.1198865280
 H          4.4428632405       -6.3416721912        0.7458264004
 H          6.6320250473       -6.2700363353       -1.4032249692
 H          8.0523054006       -4.9586082509        1.6260847459
 H          4.2045093538       -6.0076548692       -0.9998558876
 H          6.0568971639       -7.7187790097       -0.5175877019
 H          5.6319588463       -4.6787767264        2.0194259014