142
-211.12951402
 C          2.0229597033       -6.5620903742        3.3664697662
 C          0.9611323180       -6.7637715883        2.2902837864
 C         -1.7210943399        5.3704465478        6.5153834598
 C         -2.8730517113        5.2070188966        5.5289472206
 C         -4.5734812087        5.6971443850       -2.1533643690
 C         -5.3220390385        4.9720294658       -3.2672056324
 C          5.7820284418       -1.9970973121       -3.3449974335
 C          5.0112693410       -2.6227173529       -4.5032434165
 C          2.6896766269       -5.2008692569        3.2046394764
 C         -0.0773200703       -5.6502955812        2.3532917372
 C         -0.7169141910        4.2344801816        6.3560354750
 C         -2.3470067008        5.1568254709        4.0988620059
 C         -4.4085217283        4.7864857753       -0.9418302046
 C         -4.5900072281        3.6928490841       -3.6572359363
 C          5.0954703335       -0.7192507678       -2.8783038297
 C          3.5721500764       -2.9105869419       -4.0914255788
 C          1.9366368587        0.6565438833        3.9043868393
 C         -1.6196294852       -0.2595929288        0.7365588650
 C          0.9887550894        1.7023589288        0.4946434235
 C         -1.7032484997       -0.4349080200       -2.9501186239
 C          3.6055796930       -0.3497668541        2.4890276359
 C         -2.3802470228       -1.2650667271        2.7872998761
 C          3.4723787507        2.0547903764        2.6846050884
 C         -3.4048708892        0.7714313432        1.9818027556
 C          0.3776324756        3.9762293980       -0.0111849855
 C         -3.2499824413       -1.8041987183       -1.7112149118
 C          1.7372586098        2.7102429897       -1.5591167173
 C         -1.0439798112       -2.6384040790       -2.2363264193
 C          1.9728981026       -1.7957234640        3.6677091454
 C         -0.5496264590       -2.3423570469        1.5103710323
 C          1.6700362268        3.1151122029        3.9885226933
 C         -2.6291123930        1.8061374172       -0.1341601883
 C         -0.3893435185        2.9417293510        2.1089045966
 C         -3.8854984625        0.5106377750       -2.2665275346
 C          2.3856177588        0.3740965239       -1.0428784179
 C          0.5875815440       -1.2053064662       -3.4320531479
 C          2.5246582321       -0.4816142925        3.3648803748
 C         -1.5304021472       -1.2788538932        1.6798072396
 C          2.3908879556        1.9275305645        3.5552890416
 C         -2.5497509773        0.7668820467        0.8804305807
 C          0.3263747197        2.8764215785        0.8442984057
 C         -2.9500085600       -0.6009645410       -2.3486832485
 C          1.6987634920        1.6115057404       -0.6986689332
 C         -0.7425248140       -1.4373004105       -2.8836616629
 C          4.0652037346        0.9130535491        2.1751056086
 C         -3.2983332098       -0.2408033942        2.9176477484
 C          1.0754408390        3.8687001320       -1.2000958005
 C         -2.2940593217       -2.8037925382       -1.6756321409
 C          1.6597686472       -4.0739916955        3.2729671419
 C          0.5776872074       -4.2781298901        2.1816677831
 C         -0.1678974974        4.1834535386        4.9325972099
 C         -1.3519031222        4.0142323552        3.9240719053
 C         -3.6636006856        3.5096944997       -1.3176075809
 C         -4.4333859602        2.7629813341       -2.4568458834
 C          3.6532543703       -0.9968753987       -2.4498828601
 C          2.8715821886       -1.6345794717       -3.6270173258
 Br         5.5391247828        1.0965523121        0.9731808884
 Br        -4.4497179396       -0.2140149701        4.4422840230
 Br         1.1150323907        5.3664998099       -2.3857446599
 Br        -2.7074395983       -4.4454661957       -0.7902048430
 N          2.3023192023       -2.8221021068        3.0102415056
 N         -0.4123199626       -3.2644273684        2.3597355507
 N          0.6628587793        3.0414975305        4.7516342201
 N         -3.5922289319        2.6235941904       -0.2001647555
 N         -0.7961421453        4.0301522528        2.6087966921
 N         -3.6323718366        1.6345368682       -2.7909170521
 N          3.0160133407        0.2395483561       -2.1267804613
 N          1.5621537115       -1.9555373210       -3.1475945291
 H          1.5579840513       -6.6242297242        4.3528629768
 H          2.7783124051       -7.3469148307        3.2998489393
 H          0.4661604040       -7.7264624796        2.4269802009
 H          1.4340986993       -6.7646413601        1.3058225366
 H         -1.2207716614        6.3250147421        6.3367454795
 H         -2.1026614984        5.3758808539        7.5376449081
 H         -3.4127485101        4.2832410016        5.7493839580
 H         -3.5723655986        6.0384456401        5.6302676108
 H         -3.5886638957        6.0015755545       -2.5148595498
 H         -5.1181245107        6.5963146640       -1.8610944918
 H         -5.4103360595        5.6196347488       -4.1409520462
 H         -6.3303118393        4.7241777873       -2.9274636732
 H          6.8027387200       -1.7658688058       -3.6537333990
 H          5.8332991751       -2.7055360850       -2.5152504055
 H          5.4926453116       -3.5510185123       -4.8151763564
 H          5.0143336839       -1.9389801160       -5.3548590822
 H          3.4317905216       -5.0431541595        3.9899674343
 H          3.2004954534       -5.1424986180        2.2420284500
 H         -0.8259680913       -5.7797583858        1.5694284650
 H         -0.5917552622       -5.6665033078        3.3153249712
 H         -1.1903524648        3.2766656122        6.5778221996
 H          0.1191555077        4.3654908989        7.0461156146
 H         -1.8479175779        6.0930385883        3.8437000187
 H         -3.1690314200        5.0097014636        3.3960104601
 H         -5.3836709092        4.5121359802       -0.5361975706
 H         -3.8472575525        5.2958751213       -0.1564501944
 H         -3.5969716284        3.9277657256       -4.0437665043
 H         -5.1393236593        3.1624862354       -4.4378514469
 H          5.0779431639        0.0166217681       -3.6836413259
 H          5.6324214195       -0.2819441523       -2.0343309247
 H          3.5510502551       -3.6321285733       -3.2726904004
 H          3.0098994974       -3.3279802268       -4.9287099329
 H          1.0973384311        0.5805866366        4.5782151917
 H         -0.9663166549       -0.2664837961       -0.1244269349
 H          0.9568758928        0.8556954756        1.1656837081
 H         -1.4915014253        0.5039905245       -3.4377826554
 H          4.0553240963       -1.2381742791        2.0755067452
 H         -2.3027654202       -2.0576920906        3.5139246535
 H          3.8345582059        3.0322828954        2.4037101954
 H         -4.1252392339        1.5673504726        2.0815012563
 H         -0.1329276626        4.8829932320        0.2705484883
 H         -4.2113215279       -1.9479581802       -1.2413835380
 H          2.2870309550        2.6297126400       -2.4829750235
 H         -0.2911278389       -3.4085310087       -2.1855760661
 H          1.2297973843       -1.8265864563        4.4765628556
 H          0.0585988141       -2.2854218392        0.5936233330
 H          2.0198952527        4.0698325933        3.5691380451
 H         -1.7940892880        1.8249724198       -0.8499799582
 H         -0.5433667320        1.9738367755        2.6085308468
 H         -4.7940701631        0.3317100488       -1.6729241412
 H          2.3176702395       -0.4303483336       -0.2931162757
 H          0.6921885850       -0.3192065867       -4.0731738391
 H          1.1466489155       -4.0724363840        4.2496014671
 H          1.0691307103       -4.2041146053        1.1954096260
 H          0.3522582496        5.1228627962        4.6765954963
 H         -1.8238832182        3.0446278327        4.1530735961
 H         -2.6619957997        3.7423631699       -1.7149573153
 H         -5.4184990246        2.4708662146       -2.0531780408
 H          3.6301628030       -1.7043787683       -1.6021617989
 H          2.8362534835       -0.8922439695       -4.4422335343
 C          2.0032853039       -6.0073122800       -8.5908164120
 C          2.7467436849       -5.2442241342       -7.4935356200
 O          1.0696185642       -6.9110438938       -8.0236422409
 C          0.1536582743       -6.2240112459       -7.1886433891
 C          0.8947426189       -5.4586432718       -6.0911389314
 O          1.8307926816       -4.5556473851       -6.6564130140
 H          2.6925834767       -6.6112617801       -9.1808930086
 H          3.3356289856       -5.9490769453       -6.8894488187
 H         -0.4380259749       -5.5203232616       -7.7922091102
 H          1.4203726940       -6.1687547105       -5.4369343398
 H          3.4000908921       -4.4836110362       -7.9210687201
 H         -0.4988421890       -6.9845259594       -6.7595276980
 H          0.2034451020       -4.8540113720       -5.5042532467
 H          1.4763759296       -5.2953343832       -9.2425415407