142
-211.12741247
 C          1.8493068755       -6.8812679567        2.0421845800
 C          0.9502082354       -6.9360915862        0.8122620028
 C         -3.5810750583        4.4288553115        4.9022693804
 C         -4.3092216178        4.3188380293        3.5670419693
 C         -3.5373185650        5.1807116290       -2.9361266163
 C         -3.6338241487        4.6293913321       -4.3553278624
 C          8.0246395706       -0.4012666748       -1.9930046430
 C          7.8557845356       -1.0098479089       -3.3811955473
 C          2.4285702916       -5.4815588940        2.2054082202
 C         -0.1698274900       -5.9098205879        0.9272247129
 C         -2.4860565754        3.3729353139        4.9962251067
 C         -3.3255497603        4.4654929506        2.4117748850
 C         -3.6635684865        4.0523555335       -1.9170377302
 C         -2.5567667491        3.5772227399       -4.5953374971
 C          6.9557813766        0.6553872154       -1.7430686387
 C          6.4642102577       -1.6141506694       -3.5274047721
 C          1.1002979876        0.2151491105        3.3890125664
 C         -2.1119644371       -0.4706949069        0.1874669691
 C          1.4175759844        1.8016797766       -0.1353574619
 C          0.6583650091       -0.1846212247       -3.7273231063
 C          3.2222723431       -0.6026425553        2.5998269283
 C         -2.8317734570       -1.8811326397        2.0000819799
 C          2.8752274727        1.7700995388        2.9061463048
 C         -4.0875791842        0.1031643182        1.4387706633
 C          0.6819182564        4.0490797020       -0.5910801432
 C         -0.8762273971       -1.9962959488       -3.3268615446
 C          2.6915683128        3.1983214110       -1.6268760249
 C          1.5067380584       -2.4085691711       -3.3579830739
 C          1.3781294025       -2.2056310248        3.0293697889
 C         -0.8258787197       -2.5202913463        0.7045412697
 C          0.6533211346        2.6388558692        3.5416378212
 C         -3.3663262178        1.5881526685       -0.3966677947
 C         -0.5930001059        2.6554977765        1.0067413614
 C         -1.7600740567        0.2952421445       -3.5819188726
 C          3.5242602325        0.9309819747       -1.0944605020
 C          3.0900222114       -0.5267412646       -3.7009967592
 C          1.9123808162       -0.8490355745        3.0182262038
 C         -1.9318536953       -1.6072755884        0.9663391334
 C          1.5633490913        1.5274913358        3.3098036055
 C         -3.1861222861        0.3891265787        0.4166637582
 C          0.5051435579        2.8336005653        0.0689808041
 C         -0.6475780945       -0.6423298204       -3.5675609403
 C          2.5259673845        1.9840528844       -0.9580669942
 C          1.7356773637       -1.0536627180       -3.6110855786
 C          3.6838354969        0.6982715271        2.5710256470
 C         -3.8898894269       -1.0250512135        2.2137327025
 C          1.7592384976        4.2001991728       -1.4432348422
 C          0.2061084226       -2.8539050836       -3.2339948821
 C          1.3233419531       -4.4339828842        2.3287674682
 C          0.3847106581       -4.4930359068        1.0943255026
 C         -1.4824572742        3.5162527152        3.8541689656
 C         -2.2248511863        3.4108990060        2.4836393220
 C         -2.5590931065        3.0195374890       -2.1371956797
 C         -2.6601467466        2.4428650934       -3.5771997600
 C          5.5520487244        0.0644164396       -1.8757946715
 C          5.3792231567       -0.5671587964       -3.2868755214
 Br         5.4842974924        1.0356890676        2.0335177069
 Br        -5.1217540325       -1.4028825941        3.6152145983
 Br         1.9666111856        5.8502489559       -2.3831446982
 Br        -0.1192821298       -4.7099165277       -2.9046989731
 N          1.9187999958       -3.1318323632        2.3636613263
 N         -0.7054271299       -3.6043605362        1.3396356996
 N         -0.5512255014        2.4402332259        3.8740504218
 N         -2.4902122263        1.9042657717       -1.2465299200
 N         -1.2616943775        3.6341870235        1.4512371143
 N         -1.5719784343        1.5328241494       -3.7405474197
 N          4.5910956766        1.1112443643       -1.7458116279
 N          4.0923736927       -1.1900740144       -3.3116266080
 H          1.2698120805       -7.1424513381        2.9305374572
 H          2.6622870839       -7.6026099404        1.9454930817
 H          0.5160754930       -7.9313432561        0.7063816105
 H          1.5394879666       -6.7293031304       -0.0831783186
 H         -3.1373583811        5.4226136128        4.9949953951
 H         -4.2857510824        4.2952484037        5.7245745756
 H         -4.8033437848        3.3466215556        3.5053245936
 H         -5.0755522047        5.0923253359        3.4931235818
 H         -2.5763993981        5.6822258368       -2.8052377695
 H         -4.3269086291        5.9154979791       -2.7671872356
 H         -3.5182046836        5.4388776585       -5.0776196366
 H         -4.6196265326        4.1822375488       -4.5066906932
 H          9.0117637684        0.0541768335       -1.8999799168
 H          7.9428269073       -1.1850102405       -1.2369136528
 H          8.6077534096       -1.7834171338       -3.5459407278
 H          7.9974164979       -0.2350998449       -4.1381542687
 H          3.0573764010       -5.4288166576        3.0964809718
 H          3.0455513944       -5.2269306593        1.3421114359
 H         -0.7936443736       -5.9335156298        0.0320315492
 H         -0.8011420950       -6.1328433626        1.7888259160
 H         -2.9194712517        2.3722323007        4.9503929201
 H         -1.9494014093        3.4635627313        5.9427347530
 H         -2.8591800651        5.4517328759        2.4334880596
 H         -3.8433645121        4.3609947098        1.4563348975
 H         -4.6416860461        3.5752969122       -2.0227637320
 H         -3.5767736352        4.4492535479       -0.9026364916
 H         -1.5655232330        4.0245652861       -4.5095889382
 H         -2.6518945736        3.1573818887       -5.5987971629
 H          7.0533856654        1.4704198369       -2.4618271913
 H          7.0610896812        1.0736584826       -0.7404249369
 H          6.3266222027       -2.4224341067       -2.8073109057
 H          6.3312788077       -2.0287518609       -4.5287767009
 H          0.0847222486        0.0510361540        3.7134988193
 H         -1.4320858488       -0.2323406555       -0.6170349935
 H          1.2776550041        0.8597388680        0.3757957729
 H          0.8093699759        0.8664576341       -3.9141441126
 H          3.8460336747       -1.4339514481        2.3124647875
 H         -2.6824383893       -2.7645459259        2.5996008372
 H          3.2513249483        2.7803742504        2.8484945369
 H         -4.9293200911        0.7540873677        1.6224387834
 H         -0.0231944406        4.8458678289       -0.4168984190
 H         -1.8828870761       -2.3678967971       -3.2050043675
 H          3.5501073138        3.3280211832       -2.2659642894
 H          2.3490615592       -3.0751357434       -3.2643068035
 H          0.4681835172       -2.3560789886        3.6264620469
 H         -0.1252803996       -2.2136159861       -0.0880289038
 H          1.0580112739        3.6453457128        3.3625820891
 H         -4.2780732636        2.1629585585       -0.1969485878
 H         -0.7831742194        1.6207549610        1.3215174361
 H         -2.7573914882       -0.1340667986       -3.4029985031
 H          3.3029827145       -0.0095668742       -0.5663451576
 H          3.1752128595        0.4945200181       -4.0969860059
 H          0.7004121126       -4.6220771858        3.2189283438
 H          0.9699976054       -4.1976136961        0.2065275159
 H         -0.9857102313        4.5015681588        3.8867906177
 H         -2.6478526876        2.3939962843        2.4301154897
 H         -1.5773019236        3.5028250801       -2.0578653710
 H         -3.6383288586        1.9320963138       -3.6624458705
 H          5.3929941421       -0.7352577196       -1.1322428415
 H          5.4531310527        0.2521474741       -4.0213091036
 C         -6.6927232525       -2.9771999508        0.2724585313
 C         -7.0555777062       -4.1150919247        1.2274140725
 O         -5.2867599391       -2.7774110633        0.2412792852
 C         -4.6212322298       -3.9759037809       -0.1260069691
 C         -4.9887327878       -5.1118093569        0.8293274141
 O         -6.3911648479       -5.3092552721        0.8514675781
 H         -7.1286791044       -2.0360308597        0.6075383364
 H         -6.7710092451       -3.8407006934        2.2529425677
 H         -4.9051543851       -4.2512683994       -1.1518043453
 H         -4.6348651447       -4.8698606003        1.8412644381
 H         -8.1229238603       -4.3312773767        1.1847427531
 H         -3.5539294343       -3.7604314732       -0.0784258354
 H         -4.5498541824       -6.0527139204        0.4981895340
 H         -7.0498153970       -3.2157666237       -0.7394784364