142
-211.12672861
 C         -0.0615124654       -5.8510810196        6.5180810486
 C          1.3917433349       -5.6130077911        6.9173414865
 C         -7.4026701431       -0.0905033006       -1.8199897882
 C         -7.1892761437       -1.1589189632       -2.8863475563
 C          2.4174431536        6.8812495709        3.4853267917
 C          1.0241292981        7.0034758478        2.8756093302
 C          3.5519563695        3.9883076002       -7.7530867679
 C          4.6892544781        4.0533827820       -6.7385249583
 C         -0.7364934706       -4.5376339149        6.1378975996
 C          2.1507499369       -4.9227914213        5.7890865699
 C         -6.3623322663       -0.2411371053       -0.7183280959
 C         -5.7828350616       -1.0534167791       -3.4620733707
 C          2.7410105403        5.4239274795        3.7973910811
 C          0.9099011717        6.1454116273        1.6199408538
 C          2.8284014308        2.6496984030       -7.6586484150
 C          4.1581703565        3.8304186517       -5.3269454874
 C         -2.2688416736       -0.8663992065        2.0053096280
 C          2.9475297766        0.3330795222        3.1310909549
 C         -0.9619899778       -0.5178843027       -4.3099451961
 C          1.6699058055        1.9398541298       -1.3309217292
 C         -1.3266201564        0.0602329519        4.0198214061
 C          3.3447025172       -1.7786542183        2.0379392340
 C         -2.4400232649        1.4989016482        2.4295863756
 C          3.8992811743        0.2894437900        0.9199432185
 C         -0.6897615506       -2.9108984185       -4.3067063226
 C          0.5414566462        0.3681032732        0.1042723990
 C          0.8903540415       -1.5145424891       -5.4851181097
 C          1.5304238945       -0.3830293759       -1.9631461576
 C         -1.0422318886       -2.3521132535        3.5531750230
 C          2.3243276266       -1.7475608285        4.2940289802
 C         -3.4981934739        0.5885778878        0.4086564448
 C          3.3880472775        2.4639294220        1.9309526948
 C         -2.6502130779       -1.9413834231       -3.1761785131
 C          0.8078971131        2.6705440330        0.8862278188
 C          0.6898666132        0.9495605409       -5.4066934005
 C          2.6960015262        1.1685207454       -3.4614446430
 C         -1.5651280216       -1.0403953861        3.1928315356
 C          2.8940968805       -1.0565302619        3.1462842012
 C         -2.7148763732        0.3971335472        1.6212421586
 C          3.4376912442        1.0132779252        2.0188566495
 C         -1.4118974311       -1.7800458971       -3.9270404130
 C          0.9825982119        1.6674508780       -0.1513204238
 C          0.1862300336       -0.3766284660       -5.0814083828
 C          1.9602802604        0.9181111163       -2.2296456121
 C         -1.7641290191        1.3064472314        3.6212438482
 C          3.8427215675       -1.0920259606        0.9502161009
 C          0.4434814629       -2.7577853310       -5.0862987824
 C          0.8071783602       -0.6279136795       -0.8131654955
 C          0.0152887255       -3.8591211515        4.9903758811
 C          1.4805378088       -3.6010312155        5.4199772921
 C         -4.9351018559       -0.1385686434       -1.2763336477
 C         -4.7129495331       -1.1953522558       -2.3688492552
 C          2.6496425853        4.5701333836        2.5368383418
 C          1.2063970328        4.6849000389        1.9426376467
 C          2.2757290205        2.4241970351       -6.2536035103
 C          3.4443207493        2.4862999398       -5.2170529047
 Br        -1.4206256842        2.8182644814        4.7406179926
 Br         4.4479360653       -2.0656826906       -0.5802378698
 Br         1.4198195022       -4.3170609579       -5.6218425020
 Br         0.1850375448       -2.3905411429       -0.4637157865
 N         -0.5719557716       -2.5875993258        4.7006589508
 N          2.1508410984       -2.9978359972        4.3086817863
 N         -4.0453895174       -0.3829418563       -0.1809873920
 N          2.8678364157        3.1902043593        2.8283416478
 N         -3.4420059485       -0.9758633377       -2.9920149580
 N          1.1846424896        3.8728064976        0.7698863341
 N          1.7062245935        1.1230714089       -6.1407381653
 N          2.8624126092        2.3350788328       -3.9220747681
 H         -0.0970936461       -6.5352767854        5.6673790967
 H         -0.6049717995       -6.3121085186        7.3448034161
 H          1.8738410689       -6.5632827705        7.1530625412
 H          1.4250994362       -4.9872435443        7.8122365037
 H         -7.3166937491        0.8999495822       -2.2724542417
 H         -8.4029078208       -0.1821735181       -1.3920500246
 H         -7.3300848465       -2.1478851121       -2.4447381062
 H         -7.9184421842       -1.0401557624       -3.6898251491
 H          3.1573735422        7.2742972754        2.7841019258
 H          2.4754056872        7.4705771073        4.4018353497
 H          0.8168315634        8.0453409221        2.6254491122
 H          0.2798314466        6.6756923576        3.6048149424
 H          3.9440730222        4.1190836388       -8.7631048875
 H          2.8442947100        4.7975732846       -7.5586592892
 H          5.1833846423        5.0249815596       -6.7928158671
 H          5.4296837965        3.2851431072       -6.9728178073
 H         -1.7676845657       -4.7154591430        5.8249669743
 H         -0.7549019120       -3.8587249593        6.9922327590
 H          3.1814701739       -4.7234499575        6.0891233334
 H          2.1750785986       -5.5582141679        4.9023893135
 H         -6.4686094776       -1.2131712969       -0.2320774461
 H         -6.4789085328        0.5334286553        0.0425244004
 H         -5.6468965235       -0.0846528012       -3.9468404406
 H         -5.6178967014       -1.8297386320       -4.2125055953
 H          2.0423977180        5.0295481011        4.5365966932
 H          3.7500354454        5.3372362861        4.2053226321
 H          1.6129715472        6.4857853941        0.8581333892
 H         -0.0973380572        6.2136341214        1.2041861516
 H          3.5103765121        1.8319885640       -7.8970868773
 H          1.9991972946        2.6142075436       -8.3682527125
 H          3.4535678034        4.6186303799       -5.0568165920
 H          4.9771957611        3.8491544647       -4.6052529089
 H         -2.4782432222       -1.7045861179        1.3594688008
 H          2.5971218687        0.9130290451        3.9705969538
 H         -1.5269664572        0.3451399242       -3.9940511327
 H          2.0029965973        2.9437389119       -1.5364982612
 H         -0.7963259538       -0.0888716155        4.9462536232
 H          3.2844247349       -2.8549417574        2.0558263945
 H         -2.7731051894        2.4821336944        2.1348923440
 H          4.2783186790        0.8038216301        0.0496859283
 H         -1.0148842387       -3.8937592767       -4.0015320970
 H          0.0059425680        0.1432271800        1.0140081977
 H          1.7732578143       -1.3954022863       -6.0922956678
 H          1.7606700737       -1.1842143235       -2.6482481806
 H         -1.0637117409       -3.1071976767        2.7553330918
 H          2.0315184912       -1.1045976081        5.1359386509
 H         -3.6227393427        1.6282683851        0.0767864759
 H          3.7911619102        2.8909408571        1.0006964482
 H         -2.8683825353       -2.9587940743       -2.8220014067
 H          0.3650051742        2.2921207796        1.8205004877
 H          0.1449985167        1.7890418416       -4.9507765816
 H          3.0840635089        0.2745801824       -3.9693439633
 H          0.0222264255       -4.5157066109        4.1028300904
 H          1.4532176680       -2.9243213492        6.2918116874
 H         -4.7823422821        0.8634534004       -1.7127221813
 H         -4.7774583599       -2.1962467099       -1.9078813464
 H          3.3456156052        4.9382909504        1.7635272151
 H          0.5130140361        4.3105299668        2.7141591745
 H          1.5562000163        3.2167117957       -5.9831286036
 H          4.1296938652        1.6568246927       -5.4586096399
 C         -6.0495115938        1.1629900453        3.0998830848
 C         -7.5621285281        0.9615761003        3.2021218431
 O         -5.7314587007        2.0169877044        2.0133242048
 C         -6.3959631198        3.2647967465        2.1485185372
 C         -7.9080739700        3.0602378731        2.2477783864
 O         -8.2237789337        2.2074234904        3.3346223932
 H         -5.5404096590        0.2190911306        2.9038473215
 H         -7.9262031378        0.4446611691        2.3026712258
 H         -6.0332484267        3.7765010776        3.0513367183
 H         -8.2829464905        2.6190879674        1.3126882361
 H         -7.8165554571        0.3839370214        4.0906324439
 H         -6.1390550166        3.8460702813        1.2625250454
 H         -8.4160345065        4.0046902147        2.4427427655
 H         -5.6738935165        1.6048157209        4.0339711602