142
-211.12772792
 C          0.5548737103       -7.0402760849        1.4882972253
 C          0.2366100410       -6.9356601193        0.0003614670
 C         -4.3792525601        4.4585142140        4.5710062694
 C         -4.8266363708        4.5950385898        3.1192195103
 C         -2.2885562125        6.6256143937       -3.9545672189
 C         -2.3080632712        6.1925517494       -5.4169538582
 C          7.4067883780       -1.5426114227       -1.2025504970
 C          7.3794998150       -1.8566745566       -2.6948400726
 C          1.1914479695       -5.7477307915        1.9859859269
 C         -0.6877007502       -5.7529494927       -0.2617988662
 C         -3.4320103173        3.2743622873        4.7272909594
 C         -3.6189110074        4.7552195135        2.2027614469
 C         -2.7670006993        5.4904404869       -3.0564336546
 C         -1.4418319418        4.9542217589       -5.6172032594
 C          6.5392065351       -0.3269936781       -0.8997555186
 C          5.9475544317       -2.0945444795       -3.1600457076
 C          0.1467966245       -0.0564390580        3.3577250580
 C         -1.1981410368       -0.0203556469       -1.2595113998
 C          1.1977321543        1.7450562592        0.2538845360
 C          0.7615289395        0.5497702118       -4.3785600238
 C          2.3190343454       -0.9659066071        2.8529337846
 C         -2.9221220869       -1.3139767583       -0.1872749045
 C          2.0876856867        1.3678860502        3.4351753886
 C         -3.3912182137        0.9288313335       -0.9584038194
 C          0.8920006434        4.1210892898        0.0043471099
 C         -1.1542897081       -0.9078839707       -4.4578263141
 C          2.9004874584        3.0612982666       -0.8249032001
 C          1.0274490096       -1.8008936205       -3.9267940621
 C          0.3182447001       -2.4205696404        2.6856197133
 C         -0.6759939401       -2.3103650590       -0.5052412053
 C         -0.1393359597        2.3626961349        3.7907201564
 C         -1.6225935895        2.2618971613       -2.0726656766
 C         -0.8607588019        2.7721831407        1.1244414947
 C         -1.4838643991        1.5166459684       -4.7570580532
 C          3.2359350084        0.6204645414       -0.5619552289
 C          2.9913940625       -0.2964774395       -3.7609681170
 C          0.9386545945       -1.1371727678        2.9874796318
 C         -1.6110193996       -1.2034117320       -0.6540995990
 C          0.7093734110        1.2022631495        3.5645822536
 C         -2.0789384993        1.0472655274       -1.4147242124
 C          0.4210306359        2.8850436165        0.4456098242
 C         -0.6077768250        0.3699235439       -4.5689174207
 C          2.4374666280        1.8239983487       -0.3734314619
 C          1.5798819834       -0.5225111946       -4.0430228831
 C          2.8674919472        0.2780871895        3.0902261271
 C         -3.7848685177       -0.2466088790       -0.3459909934
 C          2.1190517447        4.1838460176       -0.6297713207
 C         -0.3242966413       -1.9706241532       -4.1472597101
 C          0.2765417994       -4.5502847358        1.7327682460
 C         -0.0576741794       -4.4454322477        0.2222081414
 C         -2.2075073437        3.4287352112        3.8289087947
 C         -2.6670667957        3.5712515998        2.3401909617
 C         -1.9020372339        4.2472830836       -3.2382593096
 C         -1.9208620461        3.8018839655       -4.7381159490
 C          5.0957705999       -0.5560484547       -1.3521383067
 C          5.0663275189       -0.8807082998       -2.8681952289
 Br         4.7540767681        0.5161686479        2.9024465820
 Br        -5.5742963267       -0.3931061639        0.3081543138
 Br         2.7455452091        5.8739492058       -1.2641296572
 Br        -1.0831144966       -3.7165931845       -3.9847215057
 N          0.9527949162       -3.3449151217        2.1049242861
 N         -1.0034677975       -3.3872438814        0.0635460037
 N         -1.3980029770        2.2587477496        3.8742733227
 N         -2.4186123521        3.1623484565       -2.4673149131
 N         -1.4944414895        3.7796720259        1.5528096516
 N         -1.0289433014        2.6959212552       -4.8246484834
 N          4.3493353866        0.6450197016       -1.1537732434
 N          3.7106032807       -1.1800583972       -3.2165758470
 H         -0.3659899245       -7.2303295340        2.0438804461
 H          1.2361589467       -7.8734866549        1.6684804577
 H         -0.2430598826       -7.8521832913       -0.3464053493
 H          1.1626217046       -6.8057551765       -0.5638445443
 H         -3.8713182975        5.3737534829        4.8836974270
 H         -5.2466201751        4.3164771108        5.2176093259
 H         -5.3887728809        3.7053811289        2.8264752549
 H         -5.4830589932        5.4597721724        3.0100603788
 H         -1.2717937340        6.9077252386       -3.6721102100
 H         -2.9313676793        7.4959882117       -3.8138273605
 H         -1.9381330655        7.0000238327       -6.0507639748
 H         -3.3344695829        5.9703622931       -5.7178727750
 H          8.4299051645       -1.3451460913       -0.8790621556
 H          7.0359310939       -2.4028245531       -0.6410075117
 H          7.9809641117       -2.7432207023       -2.9027064674
 H          7.8083457414       -1.0200405910       -3.2509074645
 H          1.3954105359       -5.8093754886        3.0569385433
 H          2.1381520834       -5.5715506778        1.4725207737
 H         -0.9008990028       -5.6623322025       -1.3285436392
 H         -1.6356768983       -5.8904590675        0.2605773434
 H         -3.9397934450        2.3457241029        4.4617622264
 H         -3.0943541788        3.1901349669        5.7623125981
 H         -3.0734132685        5.6678310715        2.4482975059
 H         -3.9383678330        4.8222319323        1.1612633909
 H         -3.8005061844        5.2299221331       -3.2903231612
 H         -2.7231931961        5.7911382132       -2.0081426862
 H         -0.4035375969        5.1735578870       -5.3631054694
 H         -1.4731948789        4.6314682972       -6.6599058938
 H          6.9253598620        0.5520692866       -1.4180161382
 H          6.5386876525       -0.1137126380        0.1708853244
 H          5.5227548361       -2.9593286657       -2.6475809073
 H          5.9226435807       -2.2932145619       -4.2334978603
 H         -0.9218787986       -0.1623433243        3.4620749169
 H         -0.1848363593        0.0711778446       -1.6242623138
 H          0.8342595359        0.7904494034        0.6071903903
 H          1.1633964585        1.5471202900       -4.4679794263
 H          2.9252495599       -1.8095540206        2.5641866796
 H         -3.2321767310       -2.2331307243        0.2830103669
 H          2.5379780996        2.3365782934        3.5915598495
 H         -4.0669844529        1.7587973214       -1.0881320858
 H          0.2856623038        4.9984436153        0.1622331018
 H         -2.2129952195       -1.0630159907       -4.6015593919
 H          3.8606848889        3.1121967487       -1.3123695640
 H          1.6696713946       -2.6265607379       -3.6651933190
 H         -0.7406037339       -2.5156546695        2.9634588755
 H          0.3291561870       -2.1431221569       -0.9238279038
 H          0.3737319363        3.3347907693        3.8299980291
 H         -0.5343143605        2.3382178808       -2.2128060379
 H         -1.2364832638        1.7459719366        1.2488616013
 H         -2.5620270123        1.3006207981       -4.7815174864
 H          2.8031834123       -0.3060135824       -0.1521328987
 H          3.3763568795        0.6990191006       -4.0221196056
 H         -0.6781521840       -4.6664814157        2.2728167283
 H          0.8816635319       -4.2430802085       -0.3218654743
 H         -1.6404713104        4.3397553354        4.0880674872
 H         -3.1722744219        2.6280195839        2.0748805499
 H         -0.8501484546        4.4601618627       -2.9861521838
 H         -2.9594120561        3.5218302018       -4.9862621616
 H          4.6513247119       -1.4105474373       -0.8119670038
 H          5.4381340547        0.0098468954       -3.4027472544
 C         -2.3163019874       -6.7058419104        5.7135746339
 C         -3.3053870083       -7.8437962360        5.4530465714
 O         -2.5192607976       -6.1525435164        7.0028794504
 C         -2.4041734760       -7.1535717959        8.0005649534
 C         -3.3949173906       -8.2897568344        7.7394625015
 O         -3.1882916994       -8.8435204779        6.4508916767
 H         -2.4678174483       -5.8898097157        5.0072234853
 H         -4.3305043449       -7.4458327297        5.4493359415
 H         -1.3794244159       -7.5524843732        8.0038588363
 H         -4.4227631045       -7.9062707595        7.8144534886
 H         -3.0943930328       -8.3356793942        4.5033879865
 H         -2.6149899538       -6.6624565471        8.9505816103
 H         -3.2494728510       -9.1045058235        8.4487744194
 H         -1.2874199123       -7.0862193390        5.6354386714