142
-211.12687064
 C          3.8083348767       -6.2259576628        3.5661054594
 C          2.7550119655       -6.6289845025        2.5392256621
 C         -1.7450683503        5.0447342172        6.5961686330
 C         -2.8900120930        4.6714247237        5.6599220829
 C         -4.9218057506        4.6107945531       -1.9542919070
 C         -5.5652327926        3.7397258857       -3.0285788035
 C          6.5344317819       -1.3224298541       -3.3157079404
 C          5.8515275851       -2.1048690782       -4.4328045192
 C          4.2289809300       -4.7763698747        3.3532617156
 C          1.5470218653       -5.7041656398        2.6264964524
 C         -0.5809478901        4.0747358963        6.4284047879
 C         -2.4120058351        4.6565384387        4.2122653284
 C         -4.5744558300        3.7747574398       -0.7275653585
 C         -4.6380351073        2.5914206129       -3.4107434672
 C          5.6558945427       -0.1613133923       -2.8660084205
 C          4.4906128316       -2.6119201819       -3.9697300306
 C          2.5353760223        0.8922927432        3.9645297643
 C         -0.9299572473       -0.6879787388        0.9653119428
 C          1.3130363091        1.6637274141        0.5759766536
 C         -1.0882334202       -0.9821031202       -2.7043115342
 C          4.3014377074        0.1326651553        2.5134038034
 C         -1.4449304402       -1.7525821564        3.0619384212
 C          3.7833701474        2.4877713777        2.6610013043
 C         -2.8200908408        0.0649352753        2.2539334262
 C          0.3162282126        3.7870843052        0.0304929676
 C         -2.3557698898       -2.5553437054       -1.3929913077
 C          1.8135111494        2.7100910755       -1.5333324384
 C         -0.0602016585       -3.0345494960       -1.9747930694
 C          2.9670518689       -1.5276373295        3.7799231496
 C          0.4964915115       -2.5439025692        1.7391130876
 C          1.8749357918        3.2774846658        4.0035849102
 C         -2.2961856847        1.1577745078        0.0894659873
 C         -0.1950940673        2.7146403462        2.2079526992
 C         -3.3775440788       -0.3902081420       -1.9744562590
 C          2.8579939382        0.5318524482       -0.9762321496
 C          1.2817950613       -1.3833433251       -3.2462760610
 C          3.2844903261       -0.1493073376        3.4295023244
 C         -0.6413919096       -1.6538385866        1.9245957364
 C          2.7649053889        2.2102222099        3.5718751467
 C         -2.0126898617        0.1736967948        1.1223336431
 C          0.4776934838        2.7240842618        0.9182582147
 C         -2.2742753779       -1.3349055251       -2.0621735091
 C          1.9872665020        1.6503326708       -0.6413128133
 C          0.0236935094       -1.8145953786       -2.6511688552
 C          4.5384667504        1.4442405259        2.1558067872
 C         -2.5159919831       -0.8915001964        3.2050834359
 C          0.9808857200        3.7551432589       -1.1816054203
 C         -1.2495589939       -3.3860611606       -1.3696357153
 C          3.0272688718       -3.8365925257        3.4438023577
 C          1.9548527494       -4.2466285760        2.4020022650
 C         -0.0795973180        4.0654802628        4.9866389127
 C         -1.2553341158        3.6791587956        4.0297920652
 C         -3.6343636795        2.6318182835       -1.0964133017
 C         -4.2962258777        1.7350342113       -2.1941903815
 C          4.2906069780       -0.6597007101       -2.3877714274
 C          3.5973045427       -1.4551376044       -3.5235113524
 Br         5.9240295840        1.8319257094        0.8987386370
 Br        -3.6061849864       -1.0176163426        4.7692279103
 Br         0.7305445327        5.1968634007       -2.4101565511
 Br        -1.3649181003       -5.0501742902       -0.4387884775
 N          3.4408110456       -2.5022039902        3.1318021370
 N          0.8159219246       -3.4081960082        2.6001739328
 N          0.9168716176        3.0652389033        4.8030290116
 N         -3.3838211704        1.8016547348        0.0383331205
 N         -0.7545995120        3.7397674163        2.6937426771
 N         -3.3260181777        0.7476033230       -2.5264365694
 N          3.4656358454        0.4644950991       -2.0792946465
 N          2.3704187721       -1.9730911097       -2.9984216084
 H          3.3990570819       -6.3418498094        4.5721328926
 H          4.6823104001       -6.8739419671        3.4810226334
 H          2.4350961383       -7.6574756156        2.7132610504
 H          3.1829828456       -6.5744180652        1.5358477137
 H         -1.4072321666        6.0592979348        6.3725876663
 H         -2.0876674272        5.0240650254        7.6319473074
 H         -3.2702756374        3.6826813781        5.9263108617
 H         -3.7072207116        5.3866565386        5.7656379714
 H         -4.0120831374        5.0663903858       -2.3518447867
 H         -5.6028715970        5.4132935039       -1.6666799827
 H         -5.7836326334        4.3390216111       -3.9138888240
 H         -6.5082357750        3.3353792858       -2.6535284316
 H          7.4944146803       -0.9355245930       -3.6609414388
 H          6.7233027601       -1.9848363110       -2.4680975507
 H          6.4723309988       -2.9512539393       -4.7314130064
 H          5.7214303887       -1.4581031046       -5.3033463733
 H          4.9629733459       -4.4773367783        4.1044027253
 H          4.6860163501       -4.6564354737        2.3695224710
 H          0.8007365278       -5.9767370862        1.8778677420
 H          1.0807605127       -5.7822382374        3.6098338597
 H         -0.8903303221        3.0623309586        6.6930407028
 H          0.2470621536        4.3564136413        7.0821921619
 H         -2.0761725594        5.6504322298        3.9120933422
 H         -3.2241977415        4.3589507844        3.5465578838
 H         -5.4785262039        3.3514825542       -0.2868905724
 H         -4.0875418390        4.3928940872        0.0288207604
 H         -3.7090393640        2.9789865809       -3.8320712733
 H         -5.1094148066        1.9541726212       -4.1618437930
 H          5.4970779984        0.5350113588       -3.6908361023
 H          6.1325893000        0.3861853064       -2.0507590392
 H          4.6092474044       -3.2989418992       -3.1301145243
 H          3.9882785698       -3.1495810715       -4.7765273699
 H          1.7412543131        0.6991684738        4.6690258778
 H         -0.3133466982       -0.6089087825        0.0811846987
 H          1.4449134270        0.8468578937        1.2712784119
 H         -1.0461447171       -0.0326150961       -3.2150667174
 H          4.8772739150       -0.6818976775        2.1042330715
 H         -1.2130888687       -2.5025316684        3.8008664284
 H          3.9721798049        3.5031843984        2.3465829830
 H         -3.6592218371        0.7328475387        2.3642464712
 H         -0.3279429888        4.6063523375        0.3064923830
 H         -3.2672039488       -2.8419671441       -0.8902726411
 H          2.3372132897        2.6901969060       -2.4754452813
 H          0.8074353453       -3.6736514020       -1.9386141898
 H          2.2669015287       -1.6591955356        4.6164290240
 H          1.0543506400       -2.4104943799        0.7984717098
 H          2.0524935959        4.2638034492        3.5502010412
 H         -1.4984810749        1.2955113307       -0.6552849443
 H         -0.1729927878        1.7516379464        2.7391459668
 H         -4.2297746361       -0.7024985475       -1.3531725472
 H          2.9501166934       -0.2456223963       -0.2010474515
 H          1.2251679560       -0.4959699287       -3.8917609858
 H          2.5582167786       -3.8962745137        4.4405031633
 H          2.3900810768       -4.1171908746        1.3952140399
 H          0.2747826918        5.0670267557        4.6865010164
 H         -1.5598338778        2.6554517094        4.3027915994
 H         -2.6974701313        3.0189725646       -1.5294885230
 H         -5.2075780443        1.2932256431       -1.7548510326
 H          4.4066859805       -1.3339387817       -1.5207688568
 H          3.4206319801       -0.7538847075       -4.3566358083
 C         -5.4364809363       -4.2699490506       -9.8961639012
 C         -5.7618569252       -4.1392681669       -8.4069207473
 O         -6.2140920795       -3.3615714410      -10.6575168582
 C         -6.0023038891       -2.0309449551      -10.2166086570
 C         -6.3274225493       -1.8996924770       -8.7273674721
 O         -5.5502739799       -2.8085419918       -7.9648075171
 H         -5.6842392355       -5.2659189230      -10.2632979308
 H         -6.8104034924       -4.4214090960       -8.2336169448
 H         -4.9538548260       -1.7486355459      -10.3903764525
 H         -7.3955574713       -2.1040520260       -8.5648915473
 H         -5.1036865761       -4.7679967337       -7.8070673589
 H         -6.6609501220       -1.4026534720      -10.8162357318
 H         -6.0789324144       -0.9039239385       -8.3600243944
 H         -4.3683015125       -4.0653182899      -10.0584512777