142
-211.12663271
 C         -0.9774666362       -6.7698907810        0.5650259674
 C         -1.1204970139       -6.5050078422       -0.9301830564
 C         -4.3216866968        5.1395304704        4.1549971320
 C         -4.5429802867        5.4762873167        2.6839468083
 C         -0.9020636745        7.5832322551       -3.7144868463
 C         -0.7943364544        7.2885286849       -5.2071018529
 C          7.0461265570       -2.2423571711       -0.8357372921
 C          7.1388397329       -2.4366808086       -2.3456869011
 C         -0.1972853257       -5.6421427101        1.2305453753
 C         -1.8090215380       -5.1667240597       -1.1688035049
 C         -3.6067087906        3.8002317627        4.2922655327
 C         -3.2138014537        5.5039136694        1.9378637081
 C         -1.6683693816        6.4718725794       -3.0061272508
 C         -0.1136771721        5.9439081451       -5.4361016798
 C          6.3488022957       -0.9268508640       -0.5113123678
 C          5.7490338607       -2.4009008999       -2.9705956809
 C         -0.4674059266        0.0293309576        3.0072845020
 C         -1.2506979080        0.6388519634       -1.6430329925
 C          1.2842769774        1.9008061329        0.2532112201
 C          1.2083114264        1.1506991423       -4.4431954423
 C          1.5725098444       -1.2002025161        2.6508962522
 C         -3.2883103579       -0.4288780366       -0.9335201988
 C          1.6551568255        1.0832345436        3.4379203657
 C         -3.2859572936        1.9196629743       -1.5075923076
 C          1.3926981192        4.3067920626        0.2333452582
 C         -0.8835090430        0.0372287958       -4.8740982546
 C          3.3019850188        2.9991191778       -0.4665539804
 C          1.0561497479       -1.2412677783       -4.2080060401
 C         -0.6042192620       -2.2698726638        2.1333132291
 C         -1.2060728016       -1.7634820330       -1.0852737948
 C         -0.4072508612        2.4171573869        3.6507556178
 C         -1.1928383470        3.0220084965       -2.2498785567
 C         -0.6849074870        3.1815163015        0.9843397740
 C         -0.7996094266        2.4999126849       -4.9592984555
 C          3.2117605774        0.5230405988       -0.4329507921
 C          3.1941435804       -0.0964023762       -3.6890261438
 C          0.1766639481       -1.1395281484        2.6187500631
 C         -1.9248103520       -0.5042179806       -1.2238655006
 C          0.2630422196        1.1498678267        3.4001765601
 C         -1.9215367082        1.8508970031       -1.7869216860
 C          0.6781136013        3.1345499503        0.4773598809
 C         -0.1391411871        1.2134439327       -4.7952184217
 C          2.5938964508        1.8232851015       -0.2111973192
 C          1.8073363472       -0.0650636929       -4.1349151377
 C          2.2831384965       -0.0936673932        3.0697753613
 C         -3.9410130494        0.7802480700       -1.0781753848
 C          2.6878290356        4.2162428854       -0.2423162954
 C         -0.2691410383       -1.1689574650       -4.5864836154
 C         -0.8797864080       -4.2935808723        1.0053186657
 C         -1.0310402962       -4.0235507954       -0.5143835427
 C         -2.2636952645        3.8182323671        3.5668445270
 C         -2.4895508889        4.1668264871        2.0583293112
 C         -0.9936293380        5.1203329820       -3.2177163491
 C         -0.8794305302        4.8165599742       -4.7483468493
 C          4.9482573603       -0.8804749329       -1.1251473992
 C          5.0407114406       -1.0830089267       -2.6599643055
 Br         4.1921284253       -0.1723872630        3.1114649142
 Br        -5.8035934519        0.8865620527       -0.6643278278
 Br         3.6515796850        5.8252678240       -0.6084076830
 Br        -1.2998699603       -2.7752420912       -4.6842673269
 N         -0.0642258311       -3.2501539110        1.5485779395
 N         -1.7699973146       -2.8112268691       -0.6671141782
 N         -1.6663456697        2.5263125459        3.5801614495
 N         -1.7750727711        4.0764198418       -2.6365060933
 N         -1.2032885684        4.2402226489        1.4432629672
 N         -0.1650701695        3.5893724646       -4.8468892492
 N          4.3810246719        0.4090939521       -0.8917498492
 N          3.7037096489       -1.1282887928       -3.1694024419
 H         -1.9685395266       -6.8433634920        1.0183107728
 H         -0.4600565467       -7.7163862192        0.7304549652
 H         -1.7039571121       -7.2993901157       -1.3981274784
 H         -0.1325881738       -6.4935981537       -1.3957124443
 H         -3.7195563408        5.9223634117        4.6219484826
 H         -5.2792064281        5.0944290727        4.6762686784
 H         -5.1966416261        4.7261049260        2.2332252460
 H         -5.0312434080        6.4477509406        2.5922131097
 H          0.0995878651        7.6634056442       -3.2861572333
 H         -1.4131692110        8.5343253227       -3.5571516731
 H         -0.2214084444        8.0738177918       -5.7027539101
 H         -1.7935182298        7.2697770083       -5.6483510703
 H          8.0444694461       -2.2394721398       -0.3955650167
 H          6.4856884982       -3.0693129494       -0.3943077142
 H          7.6146964728       -3.3922407085       -2.5723771532
 H          7.7525153168       -1.6432065940       -2.7779969845
 H         -0.1159713180       -5.8162990328        2.3054511397
 H          0.8127659548       -5.5889314322        0.8207888540
 H         -1.8911375611       -4.9634514231       -2.2382465775
 H         -2.8164100299       -5.1793671285       -0.7498906013
 H         -4.2167033159        3.0004904643        3.8690491187
 H         -3.4294909215        3.5686386085        5.3445473669
 H         -2.5671415042        6.2847110469        2.3414941158
 H         -3.3768590294        5.7134555329        0.8792115615
 H         -2.6894312784        6.4117679786       -3.3863159182
 H         -1.7177600836        6.6685171836       -1.9336926591
 H          0.9029244244        5.9620286782       -5.0398898987
 H         -0.0558392522        5.7227693728       -6.5038658106
 H          6.9232707593       -0.0868823444       -0.9049007422
 H          6.2590542974       -0.7972833984        0.5689409185
 H          5.1395357895       -3.2187708137       -2.5826000445
 H          5.8144469301       -2.5143938617       -4.0546559527
 H         -1.5436124991        0.1031098382        2.9842071956
 H         -0.1953270841        0.5871942232       -1.8705588369
 H          0.7306099692        0.9943745611        0.4533968507
 H          1.7653532091        2.0730726588       -4.3873377798
 H          2.0637615204       -2.1103893757        2.3461228710
 H         -3.8015057461       -1.3188684902       -0.6068213121
 H          2.2347573096        1.9426183855        3.7397576719
 H         -3.7974660054        2.8611624639       -1.6272241745
 H          0.9167004307        5.2569241847        0.4150668915
 H         -1.9280626108        0.0694360022       -5.1451151739
 H          4.3147629164        2.9291977220       -0.8292986208
 H          1.5287235258       -2.1796879050       -3.9657445475
 H         -1.6904043917       -2.1979647758        2.2834846944
 H         -0.1428492629       -1.7380355058       -1.3723545758
 H          0.2472534079        3.2780686757        3.8508317011
 H         -0.0974451550        2.9229871302       -2.2500546387
 H         -1.2314055391        2.2276527851        0.9497956152
 H         -1.8852339868        2.4667923655       -5.1321856714
 H          2.5915694041       -0.3487903794       -0.1706365882
 H          3.7536383267        0.8419129086       -3.8073699291
 H         -1.8926304468       -4.2896534131        1.4424863734
 H         -0.0184940862       -3.9453786807       -0.9479612626
 H         -1.5978997216        4.5913704703        3.9881436288
 H         -3.0971869608        3.3507770765        1.6335991120
 H          0.0346433733        5.1277018646       -2.8200462095
 H         -1.9059265101        4.7363518237       -5.1463386783
 H          4.3174082355       -1.6877956943       -0.7133008067
 H          5.6053629046       -0.2290834595       -3.0710084929
 C         -1.3646831371      -12.0377921560       10.0892800859
 C         -2.7081390513      -12.4041757047       10.7232218305
 O         -1.1705240953      -12.7560953731        8.8824244995
 C         -2.2331517454      -12.5085214011        7.9769500815
 C         -3.5765265804      -12.8748716644        8.6110465765
 O         -3.7705181081      -12.1559690417        9.8176882978
 H         -0.5370386409      -12.3116206221       10.7437163837
 H         -2.7048654547      -13.4675249725       11.0032665931
 H         -2.2366001979      -11.4452520975        7.6965244717
 H         -3.6031967330      -13.9544389035        8.8182607998
 H         -2.9057423241      -11.7890918544       11.6012436326
 H         -2.0353981931      -13.1240068765        7.0992540454
 H         -4.4043130577      -12.6012832906        7.9566817377
 H         -1.3379212397      -10.9580739969        9.8825358608