142
-211.12791989
 C          0.1240012781       -6.7634908741        2.9980397673
 C         -0.8465115888       -6.7706733005        1.8213972265
 C         -2.0555870796        5.5261108059        6.2457677607
 C         -3.1114720648        5.5705273950        5.1458833851
 C         -3.8861890088        6.5302307199       -2.6029910153
 C         -4.6054558265        5.9651487978       -3.8236319677
 C          5.2889001274       -2.5459229213       -3.1703228190
 C          4.5604652586       -3.0365196337       -4.4170059878
 C          1.0024273995       -5.5184623995        2.9534313890
 C         -1.7042108341       -5.5111882056        1.8324798897
 C         -1.2256088173        4.2519892726        6.1368626884
 C         -2.4548472414        5.4777877231        3.7731260023
 C         -3.9998557860        5.5684536586       -1.4255809262
 C         -4.0359421102        4.6002433510       -4.1934927019
 C          4.7323184693       -1.2002150145       -2.7217252403
 C          3.0624168737       -3.1349312888       -4.1528532305
 C          1.0833560853        0.3670138134        3.8107586601
 C         -2.2174629066        0.1010696553        0.3017182493
 C          0.6868036575        1.6666951776        0.3571211176
 C         -1.8973577105        0.0647898462       -3.3966575266
 C          2.7161931496       -0.8537444117        2.5282036532
 C         -3.3417027832       -0.8310227176        2.2153900137
 C          2.9370086306        1.5357596791        2.8110587764
 C         -3.9486751883        1.3634634488        1.4016853224
 C          0.4504675939        4.0185478617       -0.1050884480
 C         -3.7498158880       -1.0981269598       -2.3885005354
 C          1.7622155739        2.6174029261       -1.5754082486
 C         -1.6482941244       -2.2387130236       -2.7391226383
 C          0.7668920098       -2.0541523144        3.4800358835
 C         -1.5715175447       -2.1462817867        1.0844444847
 C          1.1933983007        2.8338207589        3.9721268542
 C         -2.7974595426        2.3236357008       -0.5741005727
 C         -0.6564949598        3.0448423665        1.8884337774
 C         -3.9765026766        1.3050494169       -2.8895995274
 C          2.0306538558        0.1998821029       -1.1008594915
 C          0.2910702448       -1.0238991975       -3.6954456817
 C          1.5419715534       -0.8356392924        3.2858029672
 C         -2.3889744642       -0.9465136296        1.2014446578
 C          1.7630746669        1.5587701382        3.5628381301
 C         -2.9898970818        1.2561540664        0.3950133028
 C          0.1644487666        2.9127615053        0.6946961723
 C         -3.2114108076        0.0678112615       -2.9312459992
 C          1.4896105920        1.5108872871       -0.7689101909
 C         -1.1072395171       -1.0737649592       -3.2895379609
 C          3.3961240468        0.3282215017        2.3152762113
 C         -4.1003194016        0.3208079724        2.2971279336
 C          1.2361117588        3.8473129924       -1.2298699967
 C         -2.9602673552       -2.2318646474       -2.3108743803
 C          0.1543756675       -4.2473459013        2.9710716308
 C         -0.8339612409       -4.2540360740        1.7764359315
 C         -0.5473966717        4.1533519848        4.7727814253
 C         -1.6325927052        4.1993055845        3.6468199777
 C         -3.4197566342        4.2029286786       -1.7793283146
 C         -4.1588956213        3.6205384947       -3.0292861267
 C          3.2309221282       -1.2925243571       -2.4422031016
 C          2.4942306952       -1.7861484216       -3.7138374517
 Br         4.9990657623        0.3079547930        1.2750753969
 Br        -5.3922678286        0.4849084622        3.6953492045
 Br         1.5941162644        5.3573585062       -2.3444133448
 Br        -3.7014311823       -3.8214865848       -1.5529275536
 N          1.0029670586       -3.1044261675        2.8201170846
 N         -1.6701550250       -3.1030888080        1.9001081011
 N          0.1115075261        2.9000718119        4.6257322096
 N         -3.6111777293        3.2834452705       -0.7037974511
 N         -0.9482596999        4.1670584401        2.3939116698
 N         -3.5033726111        2.3933066614       -3.3301528869
 N          2.7347899862        0.0095904368       -2.1297230235
 N          1.1096843931       -1.9321909062       -3.3803326741
 H         -0.4387104063       -6.7780937472        3.9340926224
 H          0.7543020501       -7.6539154437        2.9696773130
 H         -1.4932909265       -7.6478370390        1.8735875322
 H         -0.2858822575       -6.8204282073        0.8854184668
 H         -1.3998911069        6.3953823472        6.1570753005
 H         -2.5346750185        5.5636928163        7.2254164406
 H         -3.8050132341        4.7362680553        5.2732254618
 H         -3.6830184224        6.4975035884        5.2138154986
 H         -2.8320479655        6.6877586224       -2.8421718219
 H         -4.3173389299        7.4941535529       -2.3281956881
 H         -4.4955729716        6.6450118757       -4.6699837542
 H         -5.6714252749        5.8668966374       -3.6056362617
 H          6.3553312200       -2.4444567069       -3.3757353021
 H          5.1712505091       -3.2774567802       -2.3683744718
 H          4.9429182039       -4.0156047239       -4.7086702450
 H          4.7394405578       -2.3425690285       -5.2414929662
 H          1.6794929186       -5.4978954817        3.8099045418
 H          1.6079052167       -5.5156358821        2.0454859039
 H         -2.3837753382       -5.5027972492        0.9781638966
 H         -2.3062634860       -5.4710679468        2.7415271667
 H         -1.8600636815        3.3743670546        6.2709225431
 H         -0.4545989677        4.2323260298        6.9098808824
 H         -1.7952335899        6.3313194678        3.6084561875
 H         -3.2129098949        5.4801620549        2.9878744763
 H         -5.0449614731        5.4375033261       -1.1404225535
 H         -3.4605024486        5.9598304516       -0.5612174259
 H         -2.9813169732        4.6896648877       -4.4590516497
 H         -4.5666128230        4.1861253349       -5.0532934547
 H          4.8907076886       -0.4478416623       -3.4960308657
 H          5.2357915992       -0.8610163393       -1.8144759518
 H          2.8660360234       -3.8652220363       -3.3661987201
 H          2.5359165767       -3.4587895968       -5.0530946826
 H          0.1760745843        0.4073835143        4.3933841428
 H         -1.4825765952        0.0169543516       -0.4863543754
 H          0.4717285428        0.8138002343        0.9851968660
 H         -1.5000564696        0.9780142567       -3.8118055168
 H          3.0639829189       -1.7912020862        2.1246831051
 H         -3.4658806562       -1.6466853000        2.9092942228
 H          3.4740042011        2.4504197961        2.6096278274
 H         -4.5453579250        2.2593281248        1.4627991836
 H          0.0467464380        4.9801148417        0.1680626744
 H         -4.7657019034       -1.1116225509       -2.0232801101
 H          2.3814441420        2.4863569792       -2.4481030191
 H         -1.0277271201       -3.1168063893       -2.6588686122
 H         -0.0521210764       -1.9873521040        4.2095602575
 H         -0.8668826817       -2.1599778784        0.2377341022
 H          1.7297845249        3.7319232105        3.6322733250
 H         -1.8951512911        2.2323253297       -1.1965000053
 H         -0.9996437377        2.0964762552        2.3274395006
 H         -4.9612213777        1.2468212861       -2.4031418388
 H          1.7858495800       -0.6079549933       -0.3929373409
 H          0.5912494845       -0.1301751358       -4.2599161762
 H         -0.4460053890       -4.1906671798        3.8948808140
 H         -0.2420577712       -4.2339009917        0.8443246913
 H          0.1347781357        5.0057088176        4.6089554124
 H         -2.2676309544        3.3089485244        3.7853230216
 H         -2.3556771925        4.2880268460       -2.0546046345
 H         -5.2160390244        3.4718002291       -2.7484017164
 H          3.0319322503       -2.0141589495       -1.6304191697
 H          2.6455181857       -1.0249401014       -4.4979997809
 C          6.5306295196       -7.6935610303       -3.5054876209
 C          7.5281222718       -8.8178031513       -3.2196053403
 O          7.1032495411       -6.4315406049       -3.2074554099
 C          8.2980472256       -6.2372799693       -3.9452704059
 C          9.2953331986       -7.3621585041       -3.6613113822
 O          8.7218468600       -8.6242271130       -3.9597180760
 H          5.6478825671       -7.7851771192       -2.8725399781
 H          7.7612621532       -8.8382729747       -2.1451338794
 H          8.0666102703       -6.2140822667       -5.0200716976
 H          9.5901172741       -7.3336968013       -2.6023199326
 H          7.1289096111       -9.7829317733       -3.5317938254
 H          8.6982983253       -5.2738345000       -3.6298399550
 H         10.1774729255       -7.2705616880       -4.2950730739
 H          6.2373493883       -7.7235960473       -4.5649800685