142
-211.12760272
 C          2.1291257308       -6.4537396571        3.6087385378
 C          0.9584007013       -6.6765401724        2.6568581341
 C         -1.0955005874        5.6931746573        6.5681027783
 C         -2.3414288477        5.5092162486        5.7075499513
 C         -4.8313765806        5.6810351750       -1.7336683984
 C         -5.6900613708        4.9175987596       -2.7369604612
 C          5.2569888778       -2.3047442902       -3.6036998804
 C          4.3707099516       -2.9563450991       -4.6604594066
 C          2.7955053981       -5.1126144682        3.3243546159
 C         -0.0512925252       -5.5421440823        2.7824865323
 C         -0.1321755181        4.5286395832        6.3678715577
 C         -1.9593443017        5.3801687000        4.2372612143
 C         -4.5559362043        4.8215706714       -0.5048874747
 C         -5.0088626965        3.6143908966       -3.1392708572
 C          4.6451194460       -0.9907262988       -3.1335364030
 C          2.9691576194       -3.1876593992       -4.1076367820
 C          2.2083908966        0.7839189127        3.8414395976
 C         -1.6692311713       -0.1904981382        1.1096443906
 C          0.9451490190        1.6863765129        0.4985907474
 C         -2.1132688013       -0.5273372120       -2.5367550611
 C          3.7067468007       -0.3183698435        2.3112234402
 C         -2.2271094046       -1.0944652749        3.2697323870
 C          3.6343523714        2.0945599980        2.4093010280
 C         -3.3012974352        0.9248517097        2.4853622256
 C          0.3315003703        3.9487988689       -0.0536886991
 C         -3.5523885106       -1.8159589613       -1.0978225140
 C          1.5085694565        2.5815657005       -1.6637310015
 C         -1.4279216776       -2.7192186630       -1.8100889258
 C          2.1800840970       -1.6772184524        3.7130228180
 C         -0.5556509010       -2.2593517280        1.8580436487
 C          1.9921730008        3.2493070014        3.8373807849
 C         -2.7335385568        1.8547092973        0.2570104398
 C         -0.2441701252        3.0310324989        2.1777552964
 C         -4.2041085618        0.4861581841       -1.6836551459
 C          2.1550336117        0.2550663489       -1.1036077001
 C          0.1023721652       -1.3675319556       -3.2147366465
 C          2.7191509987       -0.3888876320        3.2974403194
 C         -1.4972668178       -1.1709149695        2.0821042568
 C          2.6457111970        2.0284618591        3.3902398030
 C         -2.5649875766        0.8581566922        1.3031610087
 C          0.3431204357        2.8907402738        0.8543778780
 C         -3.2971108414       -0.6446764968       -1.8098270741
 C          1.5322600905        1.5240992329       -0.7525776146
 C         -1.1701406046       -1.5484861251       -2.5283648892
 C          4.1526811188        0.9193856018        1.8947609767
 C         -3.1121977417       -0.0487197605        3.4488924520
 C          0.9079959705        3.7709131761       -1.2978871042
 C         -2.6165970194       -2.8349208017       -1.1187345827
 C          1.7953690237       -3.9642504298        3.4521449650
 C          0.6024919902       -4.1905455962        2.4878576101
 C          0.2735049429        4.3987144151        4.9020365939
 C         -1.0065239773        4.2086906365        4.0226451910
 C         -3.8616941731        3.5204430213       -0.8940561604
 C         -4.7446302467        2.7353623394       -1.9196112973
 C          3.2424649514       -1.2120966399       -2.5637405310
 C          2.3409567047       -1.8769864898       -3.6355119118
 Br         5.4972605402        1.0185898776        0.5409920954
 Br        -4.0989706878        0.0634156251        5.0814052549
 Br         0.8614710943        5.2119928717       -2.5519308573
 Br        -2.9679786017       -4.4308858877       -0.1288318706
 N          2.4262954426       -2.7369066048        3.0720795228
 N         -0.3482669728       -3.1516960878        2.7247361865
 N          1.0626452123        3.2317511385        4.6963782486
 N         -3.6901564431        2.6823239412        0.2493593245
 N         -0.5823162017        4.1503557137        2.6603583404
 N         -3.9907974380        1.5824287568       -2.2794244360
 N          2.6658683117        0.0533498883       -2.2388415052
 N          1.0760965452       -2.1480561229       -3.0225778887
 H          1.7681924308       -6.4691762429        4.6395269832
 H          2.8618277963       -7.2546097290        3.4961155077
 H          0.4662566731       -7.6238972080        2.8820712069
 H          1.3263587783       -6.7238365340        1.6295975705
 H         -0.5982810326        6.6267531253        6.2948735022
 H         -1.3746612271        5.7555276135        7.6211040651
 H         -2.8728627424        4.6089842571        6.0243854214
 H         -3.0128460564        6.3597295790        5.8355981450
 H         -3.8842086223        5.9581629034       -2.2019680797
 H         -5.3382984404        6.5982215385       -1.4297379456
 H         -5.8580446921        5.5280806921       -3.6256287707
 H         -6.6623808910        4.6962934839       -2.2907676259
 H          6.2502919344       -2.1138941272       -4.0126894379
 H          5.3671285762       -2.9796959080       -2.7521562017
 H          4.7998893255       -3.9098639823       -4.9725352142
 H          4.3134623621       -2.3075714870       -5.5371767709
 H          3.6171388434       -4.9386648894        4.0222277143
 H          3.2048815012       -5.1014303366        2.3127860798
 H         -0.8798030442       -5.6877693180        2.0867812556
 H         -0.4622180861       -5.5112717098        3.7927342270
 H         -0.5985457325        3.5932222443        6.6812731402
 H          0.7698045110        4.6731357115        6.9661638681
 H         -1.4713007301        6.2920149314        3.8893339994
 H         -2.8489548205        5.2186582774        3.6258476739
 H         -5.4889105949        4.5771721548        0.0055635183
 H         -3.9163068314        5.3576595284        0.1985336171
 H         -4.0559961451        3.8207167816       -3.6293806217
 H         -5.6349765990        3.0575003254       -3.8394429610
 H          4.5706515403       -0.2886600487       -3.9653507384
 H          5.2667970158       -0.5330160580       -2.3617874692
 H          3.0059600611       -3.8755303923       -3.2612627264
 H          2.3243538308       -3.6268342596       -4.8713952547
 H          1.4411214560        0.7552271872        4.5995325522
 H         -1.1089951349       -0.2457636795        0.1870471323
 H          0.9627462968        0.8722346290        1.2092170891
 H         -1.9342809064        0.3882958374       -3.0788126119
 H          4.0967234306       -1.2334717707        1.8952392845
 H         -2.0859308083       -1.8570908686        4.0185281390
 H          3.9817819471        3.0510110719        2.0486285621
 H         -3.9964713629        1.7372037819        2.6238169628
 H         -0.1322487776        4.8790756203        0.2324852984
 H         -4.4638199471       -1.9205940967       -0.5287028390
 H          1.9639135452        2.4464031395       -2.6315123754
 H         -0.6904103349       -3.5057234166       -1.8097017850
 H          1.5222191086       -1.6587765566        4.5928678026
 H         -0.0421841447       -2.2493146745        0.8833319788
 H          2.3159102089        4.1767846734        3.3425869813
 H         -1.9728865026        1.8310428710       -0.5372644401
 H         -0.3639583228        2.0915642055        2.7372864843
 H         -5.0522081027        0.3474863029       -0.9971085332
 H          2.1491145281       -0.5111170917       -0.3119261381
 H          0.1682642139       -0.4932734843       -3.8770000877
 H          1.3867254454       -3.9136825546        4.4755903673
 H          0.9899853674       -4.1651478642        1.4539497925
 H          0.7821365336        5.3135603070        4.5512694063
 H         -1.4707980967        3.2616979384        4.3434837248
 H         -2.9013206004        3.7230427173       -1.3959566655
 H         -5.6886142020        2.4741294616       -1.4103288316
 H          3.2824059864       -1.8827303647       -1.6871448329
 H          2.2452243097       -1.1652839961       -4.4729059764
 C          2.8379477020       -4.9749615666       -8.8985780246
 C          2.5192162687       -6.3766195252       -8.3743258727
 O          3.0454374924       -5.0029133758      -10.3007447619
 C          1.9128665509       -5.5385314139      -10.9644275757
 C          1.5939416767       -6.9395917739      -10.4388005576
 O          1.3846091264       -6.9097165266       -9.0368361828
 H          3.7621964665       -4.5959485498       -8.4626738412
 H          3.3838475763       -7.0357574179       -8.5385395400
 H          1.0471665755       -4.8796351407      -10.8038428537
 H          2.4271941604       -7.6183881013      -10.6713197330
 H          2.2680936728       -6.3505484075       -7.3140459597
 H          2.1660461044       -5.5678095411      -12.0242410323
 H          0.6712250514       -7.3199901346      -10.8772769616
 H          2.0052323969       -4.2960566679       -8.6637520767