142
-211.12890145
 C         -3.7831561129       -6.9244665419        3.2278457184
 C         -2.5765668821       -7.8306612018        3.0016976690
 C         -5.6286927785        5.2492989824        1.7808915416
 C         -6.2555211596        5.0539222354        0.4055998614
 C          7.0627340615        0.7677232791        4.2307080056
 C          6.1770761133        1.9919903420        4.4423580191
 C          4.7442135424        5.3416591282       -6.3009890643
 C          5.6862764361        4.1800342613       -6.0009019146
 C         -3.3374096751       -5.5383174954        3.6814405315
 C         -1.6234420217       -7.2105841565        1.9854869665
 C         -4.8794501179        3.9909549357        2.1997219174
 C         -5.1789916179        4.7098356802       -0.6154715268
 C          6.2260079183       -0.4327681615        3.8011667941
 C          5.3878015282        2.3091732630        3.1765780841
 C          3.3036667435        4.8506707003       -6.3900802899
 C          5.2778618333        3.4824020268       -4.7083055736
 C         -2.0770173504       -0.1341209053        2.3144002474
 C          2.5685255744       -3.0586840829        1.3327597221
 C         -1.3417606871        2.9621148956       -3.1670244189
 C          2.5784405019        1.2467776686       -1.0525844781
 C         -0.5407115478       -1.2557246266        3.7906814682
 C          1.2132639668       -3.8560137000       -0.4949492899
 C         -0.4706748194        1.1476400182        3.5710475239
 C          3.0388280245       -2.3306035130       -0.9134145974
 C         -2.7992343231        1.3393792788       -4.1891932222
 C          0.7915589392        0.0716004838        0.0567322503
 C         -0.7777401277        2.0291132362       -5.3160100166
 C          0.7548163959        0.3366055977       -2.3406026415
 C         -2.1304018960       -2.6001281241        2.4564485519
 C          0.6885787563       -4.5760507768        1.8155277137
 C         -2.0826229912        2.3392635148        2.1392001585
 C          4.3600658701       -1.3863380546        0.9244678114
 C         -3.4696049481        2.3409826889       -2.0453671769
 C          2.7057724958        0.8060067319        1.3926316207
 C          0.7870236578        3.6093637722       -4.2366982549
 C          2.5447942545        1.5249786712       -3.5235769618
 C         -1.5821581496       -1.3123741441        2.8624553541
 C          1.5106620550       -3.8341824004        0.8704217921
 C         -1.5324821318        1.0984313055        2.6695263401
 C          3.3305812361       -2.2972744924        0.4497508362
 C         -2.5123255596        2.2064876106       -3.1352649618
 C          2.0110879954        0.7482227686        0.1168769665
 C         -0.4702203121        2.8757701120       -4.2471786478
 C          1.9642172055        1.0311525474       -2.2820655454
 C         -0.0059655158       -0.0301613634        4.1268261075
 C          1.9854050567       -3.1080257575       -1.3591733479
 C         -1.9309033777        1.2728536095       -5.2646637141
 C          0.1789598598       -0.1069385314       -1.1670330318
 C         -2.3983812832       -4.9116201697        2.6485182427
 C         -1.1668984345       -5.8292213317        2.4504009407
 C         -3.7911863151        3.6189975243        1.1815432302
 C         -4.4108794526        3.4419667347       -0.2141069627
 C          5.4553122059       -0.1222709794        2.5221149821
 C          4.5298818981        1.1153230617        2.7720747801
 C          2.8772166037        4.1670550429       -5.0932758535
 C          3.8410555770        2.9749137146       -4.7899165954
 Br         1.4161402224        0.0450511700        5.3901645818
 Br         1.5769053808       -3.1098625226       -3.2276422077
 Br        -2.3417701118        0.0950728342       -6.7192375464
 Br        -1.4892427124       -1.0179717072       -1.2391867214
 N         -1.9153869074       -3.6510585271        3.1216938793
 N         -0.3372124025       -5.2185354172        1.4571010769
 N         -3.2221329053        2.3733395971        1.5991705939
 N          4.6057374293       -1.2075402974        2.1536204925
 N         -3.3694343532        3.2551138039       -1.1804561399
 N          3.8335890490        1.3578912430        1.5504936818
 N          1.5742250728        3.6066209859       -5.2274449223
 N          3.4384717629        2.4199958751       -3.5372379286
 H         -4.3497883611       -6.8355606662        2.2983344446
 H         -4.4400752610       -7.3594403635        3.9831678121
 H         -2.9063030948       -8.8072543387        2.6432822697
 H         -2.0508415093       -7.9789885501        3.9477826725
 H         -4.9366402267        6.0938174089        1.7499237368
 H         -6.4012403015        5.4711006795        2.5191571735
 H         -6.9891233383        4.2461211699        0.4501248786
 H         -6.7719405714        5.9636686847        0.0944938337
 H          7.8063893774        0.9851370286        3.4602935163
 H          7.5938338914        0.5288454070        5.1534889509
 H          6.7900717376        2.8525291131        4.7157441344
 H          5.4801925331        1.7979414308        5.2607001057
 H          5.0249691475        5.8172611204       -7.2422477984
 H          4.8243053356        6.0891760494       -5.5083622118
 H          6.7112105987        4.5438927330       -5.9103979709
 H          5.6543971177        3.4640069523       -6.8252795847
 H         -4.2019425065       -4.8837766966        3.8126350595
 H         -2.8129921439       -5.6016950226        4.6365051559
 H         -0.7451101749       -7.8448822515        1.8501751480
 H         -2.1152036650       -7.1052642591        1.0171759558
 H         -5.5721149334        3.1512085940        2.2830460792
 H         -4.4075925580        4.1355489211        3.1742857323
 H         -4.4636395372        5.5302716520       -0.6997686383
 H         -5.6224908257        4.5490684874       -1.6005557236
 H          5.5109901760       -0.6965106090        4.5816646402
 H          6.8670140366       -1.2981981693        3.6215677424
 H          6.0628238363        2.5523643850        2.3544923546
 H          4.7345431763        3.1678755293        3.3426627957
 H          3.1959563079        4.1370630086       -7.2084732606
 H          2.6275162494        5.6865658051       -6.5811731653
 H          5.3531022562        4.1705061919       -3.8647579196
 H          5.9355803670        2.6338412712       -4.5100455943
 H         -2.8902557297       -0.1529153400        1.6054469428
 H          2.8114932275       -3.0166430355        2.3830725547
 H         -1.1303814007        3.6163471605       -2.3356943750
 H          3.5139031192        1.7795275836       -1.0076205442
 H         -0.1765476637       -2.1729487133        4.2241311822
 H          0.3813629188       -4.4490559774       -0.8392923050
 H         -0.0314103420        2.0948370949        3.8466999910
 H          3.6175374283       -1.7409914230       -1.6084701883
 H         -3.6918814817        0.7331102605       -4.1690885192
 H          0.3396922568       -0.3187880637        0.9559704183
 H         -0.1016795494        1.9786441490       -6.1543197596
 H          0.2771887028        0.1522596180       -3.2903746125
 H         -2.7254848033       -2.5948046076        1.5328479291
 H          1.0068044188       -4.5179215915        2.8660816261
 H         -1.4656511680        3.2401423123        2.2771808800
 H          4.8831335084       -0.8201927588        0.1393977223
 H         -4.3059434993        1.6276880678       -2.0525063956
 H          2.2016404467        0.2782249391        2.2161288609
 H          1.0186722490        4.1434906216       -3.3036789114
 H          2.1424912662        1.0792445885       -4.4439875300
 H         -2.9161222808       -4.8099397313        1.6789037337
 H         -0.6486009120       -5.9006207843        3.4227060200
 H         -3.0344877878        4.4214367772        1.1354342872
 H         -5.1014371758        2.5814598152       -0.1832872612
 H          6.1450530480        0.1510842063        1.7050481248
 H          3.8420782170        0.8393458877        3.5880546227
 H          2.9424559376        4.8664423302       -4.2414242925
 H          3.7255859213        2.2528135028       -5.6152942337
 C         -4.5311481311       -0.5771935194        5.1084518440
 C         -3.3124423935       -0.9538619435        5.9510733074
 O         -5.0965876359        0.6397916548        5.5638980682
 C         -4.1332988704        1.6775986580        5.5306711760
 C         -2.9179523439        1.3047573097        6.3801516547
 O         -2.3491685336        0.0879244508        5.9259085756
 H         -5.3135571643       -1.3305140687        5.1987923109
 H         -3.6228094089       -1.1378181921        6.9893136670
 H         -3.8179840989        1.8509650751        4.4913675735
 H         -3.2212152587        1.1980302809        7.4313580785
 H         -2.8191093935       -1.8369932932        5.5453221589
 H         -4.6274813900        2.5648831708        5.9266885796
 H         -2.1360042163        2.0597050691        6.2966041319
 H         -4.2294019936       -0.4696765481        4.0568684136