142
-211.12630677
 C         -2.5684257519       -7.3579288804        4.9066276990
 C         -3.3425225276       -7.5314577448        3.6034050317
 C         -0.8169936640        5.3681515558        5.6062681791
 C         -1.6723487425        5.6866625421        4.3837289988
 C         -5.7956589435        0.2340801573       -6.4455062940
 C         -4.8568434621       -0.4990743494       -7.3973711959
 C          7.0791028602        5.5248844669       -1.1285383124
 C          6.5007447511        6.3697528351       -2.2591993271
 C         -1.3286247504       -6.4991266211        4.6813995480
 C         -3.7242805833       -6.1747346812        3.0214348787
 C         -0.5641014641        3.8672626027        5.7017571328
 C         -1.0015247216        5.1768688612        3.1130848100
 C         -5.3866959938       -0.0213828448       -5.0006919030
 C         -3.4172914949       -0.0648385072       -7.1524528755
 C          5.9783040839        4.7167011319       -0.4511722161
 C          5.7878221391        5.4836865767       -3.2742726619
 C          0.4339755050       -0.8865095766        4.0165571097
 C         -2.9562539113       -2.1980495049       -0.7960725294
 C          1.7598379641        2.0199447384        0.1693943833
 C          0.9271476486        2.1066861668       -4.1478126653
 C          1.7078495965       -2.7234799800        3.1152260384
 C         -3.2456852081       -1.3068639559        1.4234901414
 C          2.5997373734       -0.4764785269        3.0536675321
 C         -3.6455122498        0.0912757767       -0.5107467042
 C          0.2292057459        0.1622362755        0.1141556837
 C          1.1400884783        0.4255744019       -5.8591768772
 C          2.2118904323        0.1389327164       -1.2661468419
 C          3.0562747034        1.7468012337       -5.2200609169
 C         -0.5527089214       -3.1268237896        4.0713372639
 C         -2.5468156112       -3.6722710315        1.1319668177
 C          1.2974008369        1.4345939316        3.8934013996
 C         -3.4410082959       -0.8379414150       -2.7977115982
 C         -0.2324968051        2.0327510862        1.6447746167
 C         -1.0746339746        0.8149152159       -4.8329065200
 C          3.8004888355        2.0197204861       -1.2368360885
 C          2.8718783853        3.4648886311       -3.4550854222
 C          0.5535233761       -2.2432274843        3.7377756791
 C         -2.9162913568       -2.3725925349        0.5850883243
 C          1.4489519826        0.0042011048        3.6785680762
 C         -3.3267937628       -0.9764733522       -1.3519253925
 C          0.5898542789        1.4139384282        0.6155487497
 C          0.3518755095        1.1129008055       -4.9342750506
 C          2.5787151495        1.3870601615       -0.7609847562
 C          2.2743473889        2.4323672862       -4.2893021583
 C          2.7071519057       -1.8297217522        2.7869094652
 C         -3.6014913298       -0.0971821373        0.8564513674
 C          1.0415714729       -0.4458729058       -0.8226509091
 C          2.4755781304        0.7531734647       -5.9834863468
 C         -1.7130943676       -5.1365683876        4.1083081391
 C         -2.4752268883       -5.3225230945        2.7770871404
 C          0.1300524511        3.3565239842        4.4429763907
 C         -0.7571862922        3.6731250104        3.1948046744
 C         -3.9390140580        0.4276443064       -4.7387139357
 C         -2.9928314445       -0.3255834278       -5.6973490729
 C          5.2622737655        3.8147814189       -1.4529857422
 C          4.6714794558        4.6791852568       -2.6131843753
 Br         4.2841014676       -2.4695582696        1.9081309307
 Br        -4.0739896830        1.3550712500        2.0010078072
 Br         0.5415848990       -2.1546902609       -1.5089094688
 Br         3.5506312426       -0.1896652430       -7.2555170930
 N         -0.5373362258       -4.3665151548        3.8298296010
 N         -2.8608766815       -4.0276764114        2.3011927545
 N          0.2919968482        1.9386546998        4.4770559574
 N         -3.6692918724        0.2850996958       -3.3321397784
 N         -0.0344434673        3.2135789204        2.0536898198
 N         -1.6005833229       -0.0153012822       -5.6218818207
 N          4.1560884357        3.1647461890       -0.8328203011
 N          4.0963545479        3.7711153453       -3.5494196519
 H         -3.2105709075       -6.8798335523        5.6499870534
 H         -2.2709395315       -8.3331349363        5.2957111370
 H         -4.2465640123       -8.1167789433        3.7806620105
 H         -2.7253374494       -8.0734054675        2.8833555481
 H          0.1374761961        5.8940636151        5.5304339811
 H         -1.3190176502        5.7105692459        6.5125704165
 H         -2.6500290101        5.2115255039        4.4894380554
 H         -1.8266233072        6.7642071449        4.3067182679
 H         -5.7597902375        1.3063679347       -6.6496563334
 H         -6.8229401649       -0.1032731686       -6.5951293564
 H         -5.1299289696       -0.2850834554       -8.4320312160
 H         -4.9454009397       -1.5765627390       -7.2413596552
 H          7.5644947214        6.1674396792       -0.3919119192
 H          7.8331104371        4.8448772981       -1.5314539625
 H          7.2978631641        6.9243536983       -2.7571032142
 H          5.7926974337        7.0928413632       -1.8478484399
 H         -0.7934505650       -6.3479416176        5.6209239400
 H         -0.6485267244       -6.9891434128        3.9827521989
 H         -4.2538255813       -6.3010647402        2.0744008879
 H         -4.3831992073       -5.6398920634        3.7077451717
 H         -1.5082738156        3.3348280300        5.8211334401
 H          0.0653458239        3.6399637750        6.5643838482
 H         -0.0441384825        5.6774604145        2.9598181773
 H         -1.6319730623        5.3782365103        2.2451792556
 H         -5.4676455430       -1.0874559835       -4.7725705344
 H         -6.0452638902        0.5181506239       -4.3163353022
 H         -3.3102636826        1.0029879638       -7.3578464635
 H         -2.7342339962       -0.6030774131       -7.8104347689
 H          5.2411572796        5.3829972100       -0.0001908185
 H          6.3974225458        4.0921334487        0.3403430273
 H          6.4925610345        4.7858580573       -3.7292852330
 H          5.3533024466        6.0904468282       -4.0712578615
 H         -0.4609203139       -0.5040493901        4.4784672914
 H         -2.7032031042       -3.0246012354       -1.4436060972
 H          2.0406765505        2.9858554499        0.5552864994
 H          0.3222039836        2.6366950146       -3.4257232527
 H          1.7889555746       -3.7761991722        2.8971977223
 H         -3.2045064902       -1.4357667337        2.4929365761
 H          3.3922497059        0.2015342778        2.7744553268
 H         -3.9306573648        1.0351624322       -0.9470993182
 H         -0.6720829062       -0.3250542237        0.4548923296
 H          0.6838129174       -0.3433835771       -6.4611127160
 H          2.8378042905       -0.3645872263       -1.9873593801
 H          4.0965505559        2.0106702075       -5.3222401622
 H         -1.4173845352       -2.6303977305        4.5285713117
 H         -1.9945243628       -4.3313524624        0.4461891474
 H          2.1074096199        2.0595062764        3.4905277555
 H         -3.3366734340       -1.7755670851       -3.3567240445
 H         -1.0290487634        1.3980506988        2.0568241923
 H         -1.6244631817        1.3631711541       -4.0571545392
 H          4.3866141628        1.4438351701       -1.9669542703
 H          2.1943810137        3.9572260693       -2.7427624438
 H         -2.3886794734       -4.6032980783        4.8000551999
 H         -1.8095280398       -5.8350602181        2.0603509666
 H          1.0932222784        3.8737116114        4.2935324329
 H         -1.7080117136        3.1307680272        3.3249653856
 H         -3.8636099998        1.5038107959       -4.9487174282
 H         -3.0664320015       -1.4058394097       -5.5165246581
 H          5.9647626134        3.0966354639       -1.9089277204
 H          3.9159657712        5.3476421671       -2.1661211589
 C         -2.8502402228        0.5519258565        5.4819698828
 C         -2.6571738732        0.2598229761        6.9698915771
 O         -2.9614662009       -0.6605102837        4.7493132366
 C         -4.0311317730       -1.4488178018        5.2466573777
 C         -3.8275254027       -1.7441424690        6.7329921671
 O         -3.7179506866       -0.5392974006        7.4693023654
 H         -1.9853739470        1.0810122070        5.0770850528
 H         -1.7004117044       -0.2606493421        7.1235627683
 H         -4.9789573736       -0.9105808917        5.1051677560
 H         -2.9139476992       -2.3423692179        6.8709601138
 H         -2.6717004886        1.1812196243        7.5513297704
 H         -4.0359867356       -2.3693067307        4.6600288689
 H         -4.6844960398       -2.2780191585        7.1443482946
 H         -3.7614674614        1.1477378847        5.3333473334