142
-211.12663825
 C          0.9542956682       -7.0242146090        1.3906857401
 C          0.7170102810       -6.9285687566       -0.1129173796
 C         -4.3728941658        4.3808902254        4.0791466414
 C         -4.6864884319        4.5447563718        2.5955838235
 C         -1.7122925172        6.6797728898       -4.0336885127
 C         -1.5903929627        6.2827932714       -5.5012344931
 C          8.0752948823       -1.1464663509       -0.7597642697
 C          8.1571101549       -1.4512895114       -2.2519465767
 C          1.5400550208       -5.7197069193        1.9184991470
 C         -0.2090387990       -5.7610311819       -0.4311109815
 C         -3.4195518504        3.2111908375        4.2950476252
 C         -3.4026111920        4.7523657626        1.8003375055
 C         -2.2393356099        5.5112357319       -3.2087106281
 C         -0.6756277570        5.0726080304       -5.6504731690
 C          7.1471654528        0.0358763525       -0.5097191012
 C          6.7681014373       -1.7365251198       -2.8110967916
 C          0.3088173454       -0.0391962721        3.2017016207
 C         -0.7211893570       -0.0088488016       -1.4000764469
 C          1.6505368222        1.9125918381        0.2334358166
 C          1.5720939185        0.7307085723       -4.3367815673
 C          2.5243287835       -0.9206329027        2.8636708034
 C         -2.5101042994       -1.3561992060       -0.5169464676
 C          2.2208193499        1.4048105858        3.4477371262
 C         -2.9502905172        0.8955417434       -1.2789131990
 C          1.3031293340        4.2866423523        0.0218708297
 C         -0.2715913062       -0.7996414222       -4.5815782025
 C          3.4079776134        3.3029118864       -0.6462849294
 C          1.8999190097       -1.6152065566       -3.9025651064
 C          0.5596721499       -2.3991916365        2.5401804078
 C         -0.2267657906       -2.3078102343       -0.6546663898
 C         -0.0397937569        2.3707588870        3.6384415972
 C         -1.1143623417        2.2848122271       -2.1986311325
 C         -0.5075010183        2.8621830358        0.9373876414
 C         -0.6747226632        1.6162225403       -4.8706287918
 C          3.7891316241        0.8661501161       -0.4133818596
 C          3.7869210518       -0.0377332592       -3.5808297775
 C          1.1396781066       -1.1084581639        2.8879300961
 C         -1.1647382029       -1.2129194167       -0.8613879787
 C          0.8385716669        1.2231787675        3.4649962669
 C         -1.6047597976        1.0466789844       -1.6122774544
 C          0.8282087005        3.0266126062        0.3840509333
 C          0.2290333291        0.5006154300       -4.6313432665
 C          2.9406731897        2.0416062555       -0.2721735786
 C          2.4073800499       -0.3142920706       -3.9597063141
 C          3.0378645117        0.3270353339        3.1545106273
 C         -3.3749499210       -0.2998622592       -0.7289467000
 C          2.5804693035        4.3988987321       -0.4953929859
 C          0.5758446488       -1.8340372743       -4.2250111640
 C          0.6183748956       -4.5396920562        1.6135038931
 C          0.3701446918       -4.4427835566        0.0853425370
 C         -2.1201509584        3.4093725764        3.5186253240
 C         -2.4407793874        3.5848609983        1.9971647629
 C         -1.3295788226        4.2937687489       -3.3388836849
 C         -1.1960497532        3.8858722299       -4.8433712926
 C          5.7456704884       -0.2388586970       -1.0577697778
 C          5.8264146688       -0.5567257569       -2.5738905727
 Br         4.9310065712        0.5874151875        3.1200679767
 Br        -5.2121429371       -0.4898142166       -0.2387707507
 Br         3.2141273870        6.1223201835       -1.0246842822
 Br        -0.1216715638       -3.6117657100       -4.1457188863
 N          1.2497329451       -3.3225454068        2.0245907378
 N         -0.5806547833       -3.4000536257       -0.1326336414
 N         -1.2994792708        2.2500843378        3.6094255685
 N         -1.8899914818        3.1780110613       -2.6466250388
 N         -1.2044936633        3.8416375291        1.3312502755
 N         -0.2616236774        2.8126091848       -4.8704191908
 N          4.9486577435        0.9359194323       -0.9046204718
 N          4.5082782147       -0.9035937968       -3.0112025021
 H          0.0080454963       -7.2290143123        1.8963942091
 H          1.6387536248       -7.8451596301        1.6108882277
 H          0.2714454906       -7.8534926734       -0.4822770498
 H          1.6708139566       -6.7859542954       -0.6254633660
 H         -3.9156300167        5.2975073525        4.4587848875
 H         -5.2931848718        4.2062065718        4.6387486052
 H         -5.1988942567        3.6515771932        2.2310894763
 H         -5.3490757051        5.3985572774        2.4454359880
 H         -0.7323441010        6.9788331465       -3.6549271848
 H         -2.3874851472        7.5307518243       -3.9312394859
 H         -1.1880557237        7.1147141393       -6.0814362555
 H         -2.5795420359        6.0418797370       -5.8973729572
 H          9.0673376553       -0.9154353027       -0.3687220888
 H          7.6989783997       -2.0227447676       -0.2274980347
 H          8.8021080710       -2.3146763369       -2.4236169168
 H          8.5913819228       -0.5963927880       -2.7750842199
 H          1.6873756267       -5.7766518638        2.9989554737
 H          2.5096142420       -5.5271106514        1.4561498488
 H         -0.3601112491       -5.6748202183       -1.5088824107
 H         -1.1837190624       -5.9130310524        0.0350990822
 H         -3.8813388504        2.2803494096        3.9617755350
 H         -3.1775325592        3.1072985749        5.3547669785
 H         -2.9028407985        5.6690329091        2.1176555025
 H         -3.6253104127        4.8396755687        0.7354435962
 H         -3.2403274663        5.2318017943       -3.5413548462
 H         -2.2977504937        5.7865469472       -2.1541944067
 H          0.3295870464        5.3128128713       -5.3002487995
 H         -0.6055373597        4.7746633926       -6.6986628058
 H          7.5357468730        0.9316315892       -0.9966714504
 H          7.0673918086        0.2406972821        0.5596349827
 H          6.3417176989       -2.6187749342       -2.3307394916
 H          6.8207529333       -1.9296869473       -3.8845404359
 H         -0.7635234578       -0.1572333752        3.2198679361
 H          0.3191568757        0.1092037964       -1.6684399431
 H          1.2818367253        0.9389733740        0.5239802449
 H          1.9383432860        1.7446426200       -4.3811625981
 H          3.1611156395       -1.7551239107        2.6170703612
 H         -2.8433827453       -2.2912100576       -0.0964258569
 H          2.6462807935        2.3763012744        3.6496334229
 H         -3.6272626931        1.7166924489       -1.4515505316
 H          0.6609728945        5.1435486294        0.1472117946
 H         -1.3092703966       -0.9941384366       -4.8073420423
 H          4.4072080314        3.3922333400       -1.0409170323
 H          2.5543604127       -2.4194774394       -3.6066789535
 H         -0.5175554901       -2.5037094293        2.7302459319
 H          0.8061677148       -2.1186838068       -0.9871524343
 H          0.4556270490        3.3470354527        3.7431500663
 H         -0.0198110833        2.3863658045       -2.2338885262
 H         -0.8663297858        1.8243239384        0.9977428895
 H         -1.7366812447        1.3599537400       -4.9973142341
 H          3.3525407494       -0.0813262849       -0.0598913440
 H          4.1453748440        0.9781155818       -3.7978001164
 H         -0.3634371996       -4.6743761211        2.0980516258
 H          1.3368942051       -4.2264316429       -0.4023117285
 H         -1.5955003804        4.3213513102        3.8525497860
 H         -2.8958111209        2.6391209629        1.6594177137
 H         -0.3117707479        4.5235897334       -2.9826972729
 H         -2.1972151709        3.5789103979       -5.1925454295
 H          5.2951294910       -1.1107151342       -0.5517120951
 H          6.1993267138        0.3496702864       -3.0801862554
 C        -10.5724752947       -8.8345815166        7.8477135940
 C         -9.5868276754       -9.9972188081        7.9818497995
 O         -9.9202258252       -7.5980978970        8.0841947436
 C         -8.8286912492       -7.4312698607        7.1948544837
 C         -7.8425245735       -8.5930567221        7.3311563520
 O         -8.4939560968       -9.8298729256        7.0942531591
 H        -11.3655559614       -8.9081836023        8.5919474781
 H         -9.2159060644      -10.0475033836        9.0158507685
 H         -9.2006855837       -7.3839878573        6.1611514496
 H         -7.4115630575       -8.5927561085        8.3428812343
 H        -10.0586025075      -10.9415156820        7.7097915774
 H         -8.3576530369       -6.4857754174        7.4639762336
 H         -7.0480954447       -8.5196700307        6.5883977961
 H        -11.0055114408       -8.8340906883        6.8369560017