142
-211.12669411
 C          2.9681643942       -6.9453212960        2.8714013115
 C          2.4501684048       -7.3576854266        1.4973853034
 C         -5.9057055386        2.2090499105        4.7221439816
 C         -6.5225948895        1.8244407847        3.3813380884
 C         -5.8779106754        2.8893777050       -4.1522616205
 C         -5.8639930192        2.1629462213       -5.4932927004
 C          6.6222166234        0.0328226485       -2.1146647413
 C          6.5586159097       -0.6244430098       -3.4894863246
 C          3.0648214263       -5.4271635236        2.9672521429
 C          1.0933829043       -6.7186371995        1.2276543174
 C         -4.5438041932        1.5453637571        4.8909143078
 C         -5.5951743613        2.2164911864        2.2366720972
 C         -5.7424922235        1.8935137728       -3.0059707436
 C         -4.5834475025        1.3498644868       -5.6444130249
 C          5.3666214466        0.8588045588       -1.8633475761
 C          5.3150257929       -1.4987579690       -3.6010715096
 C         -0.0882019107       -0.4040630425        3.4547024034
 C         -1.8493277836       -2.0202539553       -0.6450957268
 C         -0.2023500299        0.9204289224       -0.0642983482
 C         -0.6102454238       -1.4300020046       -4.1579962812
 C          2.1972199200       -0.5239461654        2.7046989880
 C         -2.7590975037       -3.5935518557        0.9336065676
 C          1.0961669547        1.6184483693        2.8996179836
 C         -4.1937323836       -1.9435997704       -0.0983490489
 C         -1.4872234298        2.8747204266       -0.6397311023
 C         -1.7238155457       -3.4936306354       -3.6073611767
 C          0.6813520723        2.5079747344       -1.6435967694
 C          0.6755914098       -3.3135158558       -3.3838131166
 C          0.9648725714       -2.6172954639        3.2032274226
 C         -0.3492793624       -3.6969799859        0.3656780482
 C         -1.2896316373        1.7579096227        3.5053405327
 C         -3.2635102096       -0.3263680940       -1.7317123413
 C         -2.3965993933        1.2499565359        0.9975783721
 C         -3.0810587620       -1.5348678556       -4.2379783858
 C          2.0230774141        0.5123060760       -1.0467681232
 C          1.8244701242       -1.1726351518       -3.8779390257
 C          1.0314503549       -1.1632594560        3.1352196173
 C         -1.6687826890       -3.0988435843        0.2155381522
 C         -0.0708615397        0.9836793816        3.3225825034
 C         -3.1043937317       -1.4387102984       -0.8074119264
 C         -1.3559270833        1.6874663017        0.0796684511
 C         -1.7864000095       -2.1687155420       -4.0370329224
 C          0.8214284645        1.3248599956       -0.9157327576
 C          0.6177573709       -1.9874717256       -3.8212689785
 C          2.2108552825        0.8526299150        2.6063587709
 C         -3.9980231790       -3.0056595594        0.7651518508
 C         -0.4697675994        3.2572786844       -1.4942961776
 C         -0.4925551068       -4.0432620983       -3.2961077373
 C          1.7089812103       -4.7723137264        2.7064914312
 C          1.1768797472       -5.1934435850        1.3118271879
 C         -3.5958578934        1.9413554452        3.7617903077
 C         -4.2302158749        1.5520303981        2.3854881879
 C         -4.4603115012        1.0777276906       -3.1373381943
 C         -4.4407412147        0.3341366019       -4.5137421083
 C          4.1099120978       -0.0078257088       -1.9623381512
 C          4.0458268463       -0.6834302520       -3.3571735184
 Br         3.8028245743        1.7296225045        2.0167407455
 Br        -5.4862623726       -3.6717940969        1.7617335885
 Br        -0.6688536707        4.8668938233       -2.5048098041
 Br        -0.4169179546       -5.8556223541       -2.6944865113
 N          1.8612169843       -3.3490250164        2.6975924894
 N         -0.1345577100       -4.6476559123        1.1661253831
 N         -2.3779617064        1.2096221351        3.8474809837
 N         -4.3973840111        0.0814111898       -2.1166498323
 N         -3.3402667722        2.0074139799        1.3663186121
 N         -3.1786892030       -0.3206769008       -4.5820443089
 N          2.9580301964        0.8258772492       -1.8330418449
 N          2.9108374105       -1.5556417978       -3.3605327795
 H          2.2894643586       -7.3159650526        3.6428153253
 H          3.9516103980       -7.3838883534        3.0486273597
 H          2.3549424361       -8.4431938762        1.4422313640
 H          3.1595984496       -7.0422778014        0.7292509550
 H         -5.7899115700        3.2941560172        4.7725683151
 H         -6.5621786296        1.9016458064        5.5377017526
 H         -6.6946057231        0.7460302947        3.3559231279
 H         -7.4852954809        2.3224790540        3.2559831738
 H         -5.0495578438        3.6004635328       -4.1149958484
 H         -6.8078932153        3.4488422137       -4.0396201350
 H         -5.9341743908        2.8835978978       -6.3095932091
 H         -6.7272225600        1.4963899733       -5.5561380772
 H          7.4989014971        0.6787775813       -2.0470916268
 H          6.7108557052       -0.7370765053       -1.3450875837
 H          7.4480138038       -1.2346497445       -3.6553621735
 H          6.5306338821        0.1479593189       -4.2612957499
 H          3.4113973610       -5.1281448163        3.9586292488
 H          3.7770596968       -5.0472526625        2.2328545247
 H          0.7317621398       -6.9923005198        0.2346006596
 H          0.3609464249       -7.0624239007        1.9596522964
 H         -4.6490877363        0.4592313442        4.8876507877
 H         -4.0922671481        1.8377823217        5.8411619950
 H         -5.4526804557        3.2981492720        2.2160354213
 H         -6.0237307751        1.9133508433        1.2797670223
 H         -6.5900397397        1.2062755409       -2.9970239701
 H         -5.7213243196        2.4170653471       -2.0485349095
 H         -3.7132370362        2.0080854003       -5.6283032320
 H         -4.5827352136        0.8127496277       -6.5951343944
 H          5.2882144632        1.6612538974       -2.5984567817
 H          5.3985239973        1.3124947043       -0.8709253666
 H          5.3528529310       -2.3041629963       -2.8656436229
 H          5.2534682566       -1.9509830371       -4.5930635807
 H         -1.0018656639       -0.8748218291        3.7830209646
 H         -1.0095281939       -1.6324990476       -1.2042338337
 H         -0.1001527151        0.0057507174        0.5024116421
 H         -0.6815748357       -0.4063476040       -4.4915234259
 H          3.0604661469       -1.1210909726        2.4578945676
 H         -2.6089763661       -4.4270202136        1.6006886001
 H          1.1252537637        2.6923286010        2.7922758519
 H         -5.1623517681       -1.4902279884       -0.2347965344
 H         -2.3817973676        3.4639952041       -0.5177253514
 H         -2.6258818886       -4.0785255492       -3.5086376369
 H          1.4783755740        2.8113610528       -2.3030623530
 H          1.6324073928       -3.7368475379       -3.1231319099
 H          0.0737675299       -3.0309271176        3.6954467948
 H          0.4427205987       -3.2662364586       -0.2673346707
 H         -1.2179926196        2.8316744638        3.2784250958
 H         -2.3260927214        0.1305295577       -2.0812347026
 H         -2.2993151956        0.2155597247        1.3584785594
 H         -3.9617545586       -2.1574982457       -4.0226944380
 H          2.0601200081       -0.3876487189       -0.4125323526
 H          1.7181279010       -0.1972403283       -4.3726212643
 H          0.9663312492       -5.0988868607        3.4539884419
 H          1.8728885845       -4.8004664705        0.5499335295
 H         -3.4286356209        3.0324293459        3.7511476769
 H         -4.3251673245        0.4535964779        2.3813055364
 H         -3.5739218810        1.7331304241       -3.1203777569
 H         -5.2830180944       -0.3793759060       -4.5154157570
 H          4.1279793058       -0.8057577347       -1.1992126418
 H          3.9461768017        0.1194910005       -4.1070286552
 C          9.7835597477        9.0884793189        5.8112537770
 C         10.5630555455        9.9337631506        4.8018592697
 O          8.4141527122        9.4561224354        5.8168371959
 C          7.8563094605        9.3234789181        4.5199847410
 C          8.6358420158       10.1683359425        3.5102677877
 O         10.0053898014        9.8016704465        3.5050967533
 H         10.1484120788        9.2562283745        6.8246918634
 H         10.5358806604       10.9896879382        5.1077420415
 H          7.8829086183        8.2674769611        4.2145833897
 H          8.5415413406       11.2325604698        3.7706714400
 H         11.5964164838        9.5952670509        4.7252858029
 H          6.8230044657        9.6622420839        4.5964237051
 H          8.2710641425        9.9995392339        2.4970121480
 H          9.8771180176        8.0244527704        5.5500273696