142
-211.12649154
 C         -0.9032257652       -5.8856006410        3.2969484377
 C          0.4509576596       -6.5288474534        3.0163367565
 C         -0.6436365036        8.1531208751        0.2034354322
 C         -2.1626579456        8.1995621804        0.3319936039
 C          6.9409398625        4.5208890521        2.9556950801
 C          5.6407579750        5.2543502944        3.2681379690
 C         -2.8215917029       -2.9422921563       -6.0029855678
 C         -1.3116120173       -3.1106473035       -6.1363264899
 C         -0.7280740479       -4.4172243848        3.6646988021
 C          1.1701162641       -5.7819598791        1.8991593710
 C         -0.0695872619        7.0541471162        1.0899631609
 C         -2.7690679338        6.8503996568       -0.0360183960
 C          6.6524128098        3.0839786806        2.5371313019
 C          4.7137117873        5.2307034221        2.0583275600
 C         -3.1874882516       -2.5623933959       -4.5728358350
 C         -0.5966384849       -1.8290906660       -5.7265807087
 C         -0.0228289094        1.0910116556        1.7828748028
 C          4.0793455825       -0.7687446171        0.5462366323
 C         -3.0330811252        1.8375334314       -0.5593662715
 C          1.5461235390        1.4638456705       -1.3804524209
 C          0.8003954716        0.3063297342        3.9049420916
 C          3.1071764842       -2.2643826892       -1.0711716243
 C          0.7413891408        2.6751725336        3.4287323919
 C          4.3160901471       -0.3037230146       -1.8050958456
 C         -3.3460397406        1.1675525717        1.7328418754
 C          2.0645669646        3.7442334387       -1.9588440408
 C         -3.3064635487       -0.4938835945       -0.0226823644
 C          0.7920982551        2.3649171303       -3.4818732602
 C         -0.0121969907       -1.3350512978        2.2386144074
 C          2.8020701188       -2.7149547281        1.3495090096
 C         -0.1191170457        3.4951585640        1.2553527137
 C          5.1824839026        1.3257343483       -0.1660418179
 C         -2.9152284271        3.5441176390        1.2259271987
 C          2.8577122086        2.8229929972        0.1998097524
 C         -2.9196751556        0.1814533584       -2.3785819878
 C          0.2793644683        0.0087411249       -2.9217695639
 C          0.2573150627        0.0367275638        2.6473497101
 C          3.3488158304       -1.9160127648        0.2605234917
 C          0.2114079711        2.4092062062        2.1666657043
 C          4.5509017609        0.0515655874       -0.4775557317
 C         -3.1358240035        2.1727746930        0.7899275213
 C          2.1424591883        2.6811190452       -1.0597814198
 C         -3.1039278410        0.5120495073       -0.9715681480
 C          0.8797025708        1.2938986780       -2.5904189906
 C          1.0359421525        1.6178301932        4.2693429072
 C          3.6037946323       -1.4591225211       -2.0762695236
 C         -3.4345713805       -0.1465030547        1.3070671736
 C          1.3810945409        3.5689550064       -3.1477822533
 C         -0.0107352884       -3.6511766728        2.5521264875
 C          1.3635272058       -4.3097242470        2.2592575717
 C         -0.6573409133        5.6932253840        0.7292697541
 C         -2.2163629856        5.7358716367        0.8491946694
 C          5.7364501913        3.0376393508        1.3164713596
 C          4.4060857568        3.7994669787        1.6288986861
 C         -2.4851536714       -1.2733531220       -4.1492074639
 C         -0.9483356399       -1.4352962032       -4.2909301356
 Br         1.8081593837        1.9842245397        5.9788326079
 Br         3.2765181767       -1.9343758921       -3.8988151573
 Br        -3.7090264545       -1.5207796800        2.6073501553
 Br         1.2427126567        5.0401335304       -4.3595961891
 N          0.2366051492       -2.3154910792        2.9921866157
 N          1.9423941615       -3.6178094923        1.1484056678
 N         -0.1904044138        4.6979905727        1.6397208796
 N          5.3549786813        1.6967468652        1.0316266553
 N         -2.6736282799        4.4671344732        0.3944349161
 N          3.6276841113        3.7993036952        0.4324847179
 N         -2.7617970341       -1.0088671233       -2.7699430372
 N         -0.3506173674       -0.1720510106       -3.9995358126
 H         -1.5366481097       -5.9648491414        2.4108540928
 H         -1.4032717893       -6.4052974575        4.1156957676
 H          0.3179089744       -7.5730462178        2.7285402616
 H          1.0609833510       -6.5035951098        3.9220906910
 H         -0.3720389415        7.9594166337       -0.8366964214
 H         -0.2137792785        9.1139391919        0.4910117205
 H         -2.4344975822        8.4523101380        1.3594089831
 H         -2.5701188267        8.9703501200       -0.3241019242
 H          7.4661453554        5.0364685518        2.1483837593
 H          7.5895600618        4.5190721569        3.8331053473
 H          5.8515305774        6.2888331258        3.5438045759
 H          5.1457608492        4.7734541330        4.1148972832
 H         -3.3278074963       -3.8704716028       -6.2733588235
 H         -3.1625822095       -2.1607545120       -6.6857230025
 H         -1.0504532954       -3.3556142531       -7.1670121284
 H         -0.9772425198       -3.9324887464       -5.4995526898
 H         -1.6987324024       -3.9481598473        3.8369585724
 H         -0.1401744618       -4.3234204230        4.5790742054
 H          2.1496586188       -6.2262938826        1.7108206075
 H          0.5918105773       -5.8369966762        0.9753631403
 H         -0.2909254883        7.2581255450        2.1388563632
 H          1.0147241942        7.0020141054        0.9768296765
 H         -2.5446727920        6.6063830327       -1.0756983109
 H         -3.8548707877        6.8764348127        0.0775944587
 H          6.1667067125        2.5437195279        3.3514891819
 H          7.5810276128        2.5635333997        2.2934799560
 H          5.1733175237        5.7519355509        1.2169864538
 H          3.7717668234        5.7301498030        2.2918183566
 H         -2.8931638546       -3.3564728094       -3.8845939942
 H         -4.2658977103       -2.4183375859       -4.4798695056
 H         -0.8829812594       -1.0084445097       -6.3862131629
 H          0.4855577525       -1.9561197931       -5.7946675602
 H         -0.4407161526        0.8898371270        0.8064527289
 H          4.2732775321       -0.4744489221        1.5660060647
 H         -2.8711386308        2.6315987787       -1.2716411198
 H          1.6153324417        0.6403677848       -0.6836713498
 H          1.0203053732       -0.5175682727        4.5644851777
 H          2.5367120198       -3.1543746291       -1.2838826839
 H          0.9156438832        3.6992898973        3.7171720977
 H          4.6751794450        0.3206464140       -2.6093405103
 H         -3.4284421542        1.4109980340        2.7814273282
 H          2.5329255593        4.6808804195       -1.7025242216
 H         -3.3568401466       -1.5197899263       -0.3508026066
 H          0.2693482023        2.2243179630       -4.4141292136
 H         -0.4539023339       -1.4566458321        1.2370920586
 H          3.1663500245       -2.4610254355        2.3547170123
 H         -0.3102672843        3.1969036719        0.2142875051
 H          5.4521355956        1.9573791629       -1.0248739858
 H         -2.9218546107        3.7151790440        2.3122268984
 H          2.6903788074        2.0185103823        0.9306471366
 H         -2.9009825350        1.0363404031       -3.0687768306
 H          0.4199654343       -0.7907242699       -2.1774905765
 H         -0.6023217366       -3.6745586408        1.6204168823
 H          1.9777655518       -4.2071244343        3.1699401886
 H         -0.4276268700        5.4293997868       -0.3163177788
 H         -2.4617697655        5.9150166366        1.9103573051
 H          6.2060280643        3.5344587868        0.4498863130
 H          3.9067685969        3.2436303240        2.4396501899
 H         -2.7875105679       -0.4320532447       -4.7954115246
 H         -0.6238124462       -2.2176848063       -3.5828519554
 C         -7.8773380210      -11.6331165813       -2.3877698584
 C         -8.0254710128      -10.8912868834       -1.0577228672
 O         -7.9241639906      -13.0355928740       -2.1847352792
 C         -9.1299576042      -13.4068112445       -1.5378415562
 C         -9.2756824545      -12.6660845616       -0.2070879789
 O         -9.2307810582      -11.2636749225       -0.4105464387
 H         -6.9104117451      -11.4235996594       -2.8454199234
 H         -7.1710319381      -11.1279890742       -0.4072747394
 H         -9.9842909537      -13.1671809783       -2.1874065173
 H         -8.4633348144      -12.9651524138        0.4710550382
 H         -8.0848188726       -9.8144406403       -1.2163615296
 H         -9.0729161812      -14.4840098600       -1.3808692316
 H        -10.2409767767      -12.8769359004        0.2533350322
 H         -8.6873338586      -11.3332960632       -3.0683785604