142
-211.12777475
 C          0.0037173804       -6.5819489532        2.4560156716
 C         -0.8017647789       -6.4662055839        1.1658679001
 C         -2.0785259957        5.6243913893        6.0559486270
 C         -2.9512627628        5.7812362172        4.8148225229
 C         -2.6087035332        7.1439867253       -2.9270781500
 C         -3.1763765992        6.6545454984       -4.2555336628
 C          6.1715820037       -2.4205246358       -2.6113626547
 C          5.6107628593       -2.7920956582       -3.9802504430
 C          0.9388232961       -5.3874711529        2.6074666263
 C         -1.5893192272       -5.1618005899        1.1453716419
 C         -1.3014100145        4.3140565346        5.9990753000
 C         -2.0979718086        5.7222624373        3.5527931506
 C         -2.9138224143        6.1447463391       -1.8167987475
 C         -2.6099029543        5.2827323209       -4.6038158483
 C          5.6365918569       -1.0642221499       -2.1682347501
 C          4.0869255817       -2.8044178466       -3.9433861594
 C          1.1623159220        0.4334283365        3.8292859245
 C         -1.6123531397        0.5350352013       -0.1169161933
 C          1.3368077067        1.9100171280        0.4344929764
 C         -0.7658310950        0.6284602066       -3.7144576206
 C          2.9097100784       -0.8035020433        2.7257494516
 C         -3.0335047558       -0.4228539364        1.5735246787
 C          3.1898751271        1.5547704108        3.1712425240
 C         -3.4205153496        1.8350911524        0.7997717091
 C          1.3112298129        4.2930102372        0.0865803091
 C         -2.7936624557       -0.4897192410       -3.0515660770
 C          2.7586928816        2.8862026402       -1.2447833929
 C         -0.7135818929       -1.7144297302       -3.1584495204
 C          0.7924094575       -1.9486005622        3.3193801230
 C         -1.1882686595       -1.7780046987        0.6231279634
 C          1.3534733862        2.8808281255        4.1417293823
 C         -1.9650598494        2.8206578602       -0.9502277043
 C         -0.1491122730        3.2908346407        1.8230200003
 C         -2.8466125257        1.9415783958       -3.4504206315
 C          2.8056757947        0.4340624326       -0.8856050917
 C          1.3950208379       -0.5559520558       -3.7552608805
 C          1.6399762304       -0.7634194517        3.3080095008
 C         -1.9556971230       -0.5422476091        0.6942924133
 C          1.9212696686        1.6000503023        3.7479567518
 C         -2.3366915438        1.7235124157       -0.0703192597
 C          0.8392145248        3.1686204640        0.7627437857
 C         -2.1330788203        0.6732439703       -3.4454437995
 C          2.2972935171        1.7597965029       -0.5611706549
 C         -0.0486837955       -0.5520107529       -3.5578892086
 C          3.6635878964        0.3515286181        2.6788901168
 C         -3.7423305903        0.7625757082        1.6110234939
 C          2.2561033340        4.1288244179       -0.9095193919
 C         -2.0727270170       -1.6638502145       -2.9244819320
 C          0.1579525446       -4.0738821608        2.5964018438
 C         -0.6572599087       -3.9563630036        1.2829315089
 C         -0.4278284115        4.2483670502        4.7489347249
 C         -1.3254799412        4.4092545434        3.4776992901
 C         -2.3416144582        4.7700330202       -2.1471176390
 C         -2.9232289092        4.2658717069       -3.5092905717
 C          4.1074541588       -1.0674100993       -2.1166219512
 C          3.5375469326       -1.4465500688       -3.5078284081
 Br         5.3975707671        0.3011046301        1.8776487058
 Br        -5.2072104214        0.9308527517        2.8264742978
 Br         2.8768038034        5.6682593721       -1.8563553489
 Br        -2.9831145664       -3.2507426628       -2.3735937911
 N          1.0717220740       -2.9724605781        2.6351582472
 N         -1.4437423545       -2.7671280970        1.3626492097
 N          0.1889953837        2.9708611005        4.6296555976
 N         -2.7153067748        3.8193794594       -1.1494248867
 N         -0.4600676790        4.4017664369        2.3418919469
 N         -2.2765932007        3.0250407787       -3.7718470321
 N          3.6494724666        0.2486588893       -1.8043866279
 N          2.1136665569       -1.5252024375       -3.3830363535
 H         -0.6781018252       -6.6193116289        3.3084798002
 H          0.5887819644       -7.5031439327        2.4514897875
 H         -1.4937117612       -7.3049921620        1.0790953101
 H         -0.1260387891       -6.4952456874        0.3084783979
 H         -1.3774659437        6.4600232353        6.1166921916
 H         -2.6990403618        5.6389442495        6.9533705349
 H         -3.6937266017        4.9804370367        4.7883920646
 H         -3.4832637201        6.7332316372        4.8499679608
 H         -1.5270678898        7.2673031780       -3.0168729309
 H         -3.0385535368        8.1137969050       -2.6716541819
 H         -2.9301707764        7.3607171409       -5.0500988547
 H         -4.2647349197        6.5909605595       -4.1856913158
 H          7.2613370952       -2.3832590980       -2.6496572982
 H          5.8859532184       -3.1803735870       -1.8806843349
 H          5.9749124487       -3.7761881139       -4.2800507760
 H          5.9506658107       -2.0661494071       -4.7222214678
 H          1.4952377674       -5.4547049310        3.5445537525
 H          1.6599426650       -5.3660996768        1.7886611893
 H         -2.1474356213       -5.0663499662        0.2121252490
 H         -2.3044360468       -5.1377927216        1.9689986883
 H         -1.9887715782        3.4666597938        5.9847390409
 H         -0.6595656138        4.2132782701        6.8767214960
 H         -1.3827110116        6.5462166094        3.5380971935
 H         -2.7265436098        5.8047663992        2.6643046245
 H         -3.9917945207        6.0468894616       -1.6786286962
 H         -2.4812935272        6.4812047138       -0.8728219667
 H         -1.5266510865        5.3394412992       -4.7224516543
 H         -3.0339766187        4.9226840825       -5.5434536182
 H          5.9544334787       -0.2861610015       -2.8639744146
 H          6.0181052911       -0.8067640901       -1.1783486903
 H          3.7323227730       -3.5605510889       -3.2408904956
 H          3.6828657919       -3.0443449075       -4.9290469588
 H          0.1827327823        0.4908931396        4.2779821653
 H         -0.7798283038        0.4481145014       -0.8006177585
 H          0.9772775868        1.0419774764        0.9687227459
 H         -0.2738521833        1.5400644543       -4.0163836515
 H          3.2717687255       -1.7362126840        2.3238663184
 H         -3.2906947969       -1.2614787338        2.2002461512
 H          3.7891208564        2.4500005206        3.1000896645
 H         -3.9791662330        2.7568323389        0.8243100512
 H          0.9242040253        5.2638000320        0.3514415281
 H         -3.8519114527       -0.4705051106       -2.8386432171
 H          3.5010178863        2.7602734726       -2.0163496419
 H         -0.1491214457       -2.6254153318       -3.0400508853
 H         -0.1175395898       -1.8782629179        3.9312448001
 H         -0.3759515195       -1.7894647260       -0.1210703605
 H          1.9743867879        3.7655523434        3.9379670857
 H         -0.9869526368        2.7146692845       -1.4422190414
 H         -0.6017890290        2.3435885046        2.1512235798
 H         -3.8910056769        1.9073563420       -3.1070483121
 H          2.4055996370       -0.3902136793       -0.2738414112
 H          1.8162799383        0.3482979238       -4.2158877592
 H         -0.5593036704       -4.0381556315        3.4337661878
 H          0.0565483384       -3.9207415898        0.4410123532
 H          0.3089969907        5.0703619464        4.7390596459
 H         -2.0143663909        3.5486626772        3.4680390331
 H         -1.2473265724        4.8197711628       -2.2711833287
 H         -4.0133369617        4.1494747842       -3.3797491118
 H          3.7460780338       -1.8123404015       -1.3857974105
 H          3.8421388060       -0.6564732807       -4.2149073867
 C          0.0838500927      -13.0554960857       -0.9326310281
 C         -0.7616035441      -12.8757175830       -2.1952738370
 O          0.9370863213      -11.9396360018       -0.7413234369
 C          0.1833986159      -10.7405006229       -0.6704044168
 C         -0.6620638662      -10.5608376047       -1.9329369211
 O         -1.5152831627      -11.6771572025       -2.1236684582
 H          0.7343640081      -13.9259606607       -1.0194175040
 H         -0.1044817956      -12.8449062734       -3.0766557131
 H         -0.4734113509      -10.7717377963        0.2107819978
 H         -0.0017264150      -10.4505086000       -2.8052300266
 H         -1.4842882903      -13.6852358314       -2.2989479859
 H          0.9073208296       -9.9324532403       -0.5674080298
 H         -1.3130068713       -9.6907799430       -1.8474079162
 H         -0.5769295010      -13.1666231328       -0.0606044044