142
-211.13183677
 C          1.3408980908       -7.0164206094        2.1268249477
 C          0.7520105850       -7.0697300728        0.7208210815
 C         -4.1675394506        4.2716606647        4.8397230923
 C         -4.7289910220        4.2904262094        3.4216943447
 C         -3.0084321504        6.0118066939       -3.8160959988
 C         -3.1388736342        5.4778001617       -5.2387555890
 C          7.5507020867       -1.1602254706       -1.6761780063
 C          7.3816507691       -1.6001721203       -3.1267812215
 C          1.9462453214       -5.6437424835        2.3951662864
 C         -0.2971984746       -5.9785579796        0.5458495123
 C         -3.1186940384        3.1746643371        4.9824273867
 C         -3.6079085237        4.4905275546        2.4081921414
 C         -3.3210401531        4.9142897494       -2.8053545411
 C         -2.2110397057        4.2862967625       -5.4461256530
 C          6.6224410284        0.0071259382       -1.3636724572
 C          5.9316379825       -1.9836217436       -3.3985522554
 C          0.5899901429        0.0373220572        3.5371584085
 C         -1.2616560619       -0.3636198506       -0.8170928472
 C          1.2603382848        1.7399663698        0.2194330574
 C          0.4362088285        0.1603810390       -4.1755954390
 C          2.7628926278       -0.7470748104        2.8577296432
 C         -2.8135093651       -1.6727366125        0.4743176758
 C          2.4074228062        1.6010672219        3.3051685434
 C         -3.4743812289        0.4869734054       -0.3882085574
 C          0.7531995051        4.0703915543       -0.1170523672
 C         -1.3483170513       -1.4399535632       -3.9401187746
 C          2.7566443085        3.1128207382       -1.0734573820
 C          0.9452972413       -2.1215974434       -3.5987305651
 C          0.8824649387       -2.3555697751        3.0264172922
 C         -0.5437545404       -2.5672765294        0.0219896636
 C          0.1557457247        2.4555565355        3.8294200066
 C         -1.8881417247        1.8326786315       -1.7348437063
 C         -0.7900918583        2.6621732395        1.2180798125
 C         -1.9083456595        0.9235874958       -4.3675432830
 C          3.3017207211        0.7216872579       -0.7191969700
 C          2.7832941218       -0.4642581694       -3.7666860130
 C          1.4231681697       -1.0082600120        3.1572644375
 C         -1.5528376343       -1.5248842856       -0.1062190578
 C          1.0674363678        1.3458735347        3.5940498038
 C         -2.2134708362        0.6424848174       -0.9633826950
 C          0.4181068063        2.8301245369        0.4250210018
 C         -0.9256654085       -0.1367020989       -4.1981941542
 C          2.4312697239        1.8726840347       -0.5209233032
 C          1.3731458324       -0.8179189692       -3.8642971119
 C          3.2315354165        0.5479216671        2.9496742461
 C         -3.7461138073       -0.6640239621        0.3272232117
 C          1.9115911836        4.1854579609       -0.8631363396
 C         -0.4035043156       -2.4094177205       -3.6525198357
 C          0.8928477393       -4.5475754691        2.2375123716
 C          0.3036353008       -4.5960078649        0.8040723421
 C         -1.9793935387        3.3692973495        3.9850618672
 C         -2.5570285581        3.3917278827        2.5310497906
 C         -2.3956802074        3.7160709301       -2.9924227615
 C         -2.5200655139        3.1687524846       -4.4531711947
 C          5.1619309920       -0.3667716506       -1.6232337817
 C          4.9894323532       -0.8190613454       -3.0967258440
 Br         5.0634623334        0.9081346118        2.5413949680
 Br        -5.4616403465       -0.8644487718        1.1453216503
 Br         2.3489228048        5.8785544168       -1.6338306805
 Br        -0.9927692409       -4.1900485137       -3.2844629031
 N          1.5077786046       -3.2646134344        2.4120944943
 N         -0.7294801018       -3.6123198828        0.7051889264
 N         -1.0802292368        2.2667004995        4.0273031550
 N         -2.7705360068        2.6565973225       -2.1126061612
 N         -1.4677767142        3.6424070177        1.6428262566
 N         -1.5579185074        2.1251445830       -4.5561141655
 N          4.3446401822        0.7874756549       -1.4254260520
 N          3.6333999699       -1.2477760271       -3.2589030663
 H          0.5541781550       -7.2104349070        2.8591306698
 H          2.1086425777       -7.7835882656        2.2418657010
 H          0.2940424005       -8.0438561347        0.5415450957
 H          1.5472005160       -6.9315827644       -0.0151231768
 H         -3.7140029563        5.2395454028        5.0652857331
 H         -4.9711503057        4.1002510737        5.5576935832
 H         -5.2371579354        3.3449760690        3.2188556014
 H         -5.4594488018        5.0944875405        3.3194510359
 H         -1.9906426679        6.3743542818       -3.6552829864
 H         -3.6921323504        6.8488980848       -3.6665596734
 H         -2.8891934263        6.2607832668       -5.9565337044
 H         -4.1714184113        5.1704173885       -5.4198590108
 H          8.5833110357       -0.8590854073       -1.4930773036
 H          7.3203943003       -1.9956426016       -1.0114554479
 H          8.0287348159       -2.4532153526       -3.3378084553
 H          7.6725308454       -0.7835160851       -3.7912880445
 H          2.3479489176       -5.5961752847        3.4092525619
 H          2.7631202878       -5.4465828371        1.6984853847
 H         -0.7074160974       -5.9984566398       -0.4658106482
 H         -1.1162558052       -6.1297318122        1.2496869950
 H         -3.5682885535        2.1962829538        4.8049695515
 H         -2.7005719895        3.1759418052        5.9911803400
 H         -3.1207146851        5.4542010374        2.5652467729
 H         -4.0066653722        4.4749036597        1.3924069135
 H         -4.3520866880        4.5754429287       -2.9187850319
 H         -3.1980856368        5.2890323779       -1.7876582150
 H         -1.1712446416        4.5888060219       -5.3116437949
 H         -2.3191531293        3.8903619313       -6.4580126125
 H          6.8721485147        0.8667364981       -1.9875269326
 H          6.7233408561        0.3078380414       -0.3190651292
 H          5.6419659865       -2.8308820763       -2.7747433360
 H          5.8028155459       -2.2745980848       -4.4431167565
 H         -0.4498101066       -0.1387326548        3.7649202543
 H         -0.2888178251       -0.2414361884       -1.2718410679
 H          1.0025611760        0.7827721887        0.6502028586
 H          0.7410369583        1.1755876885       -4.3770672655
 H          3.4013616112       -1.5638186871        2.5611452387
 H         -3.0367371697       -2.5735028293        1.0211407039
 H          2.7925288930        2.6088038681        3.3466994285
 H         -4.2056045771        1.2694825384       -0.5113287737
 H          0.0978286394        4.9095310998        0.0523006997
 H         -2.3994770779       -1.6857809138       -3.9536885084
 H          3.6637873488        3.2052090195       -1.6485611379
 H          1.6790947344       -2.8734769470       -3.3560309448
 H         -0.1092646737       -2.5199932537        3.4681607486
 H          0.3940968578       -2.3838979190       -0.5248854599
 H          0.5944843620        3.4622800629        3.7693214047
 H         -0.8227105879        1.9611514067       -1.9751614383
 H         -1.0707114258        1.6199775277        1.4293562757
 H         -2.9626082807        0.6260636046       -4.2698223033
 H          2.9896356573       -0.2038460854       -0.2101860995
 H          3.0495696140        0.5361739487       -4.1351019308
 H          0.0668155215       -4.7027087153        2.9483103963
 H          1.1245485710       -4.3926194931        0.0942605541
 H         -1.4682618946        4.3332503424        4.1522340002
 H         -3.0037233697        2.3993471248        2.3543499087
 H         -1.3415272610        4.0074783422       -2.8533241626
 H         -3.5529660328        2.8010384285       -4.5809825637
 H          4.8546401552       -1.2044392640       -0.9727940325
 H          5.2225503743        0.0487588128       -3.7367069496
 C         -2.5202865445       -5.4756620152        5.4031899700
 C         -3.5891045654       -6.5136429521        5.0577036464
 O         -1.8967946060       -4.9933189246        4.2251308953
 C         -2.8564865175       -4.4470477533        3.3308993234
 C         -3.9326750757       -5.4801935701        2.9962920645
 O         -4.5521777760       -5.9610884264        4.1777207004
 H         -1.7283635923       -5.9162985470        6.0095917488
 H         -3.1159577637       -7.3866647671        4.5847519978
 H         -3.3254581421       -3.5671253043        3.7957063111
 H         -3.4822284360       -6.3217457417        2.4504124706
 H         -4.1324510870       -6.8242658882        5.9501950979
 H         -2.2997196766       -4.1569253373        2.4369688780
 H         -4.7269415506       -5.0348173019        2.3972969453
 H         -2.9831880234       -4.6369025572        5.9430610270