142
-211.12785358
 C          0.8629652381       -6.8254393393        2.3305128568
 C          0.2390055659       -6.8124837730        0.9388647819
 C         -3.0569762591        5.0163225115        5.4442358967
 C         -3.7652136013        5.0931013022        4.0956609215
 C         -2.6384997782        6.6023782379       -3.3164203886
 C         -2.9242149024        6.0900557798       -4.7242531994
 C          7.4217315169       -1.4534705267       -2.0918197525
 C          7.0904517057       -1.8753712554       -3.5195887973
 C          1.6252533632       -5.5292423466        2.5806245040
 C         -0.6868979265       -5.6123009834        0.7843716823
 C         -2.1204935413        3.8142670158        5.4848984777
 C         -2.7466432003        5.1765907396        2.9645853890
 C         -2.9639304080        5.5291455454       -2.2838952413
 C         -2.1208194836        4.8248850878       -5.0026072439
 C          6.6275455350       -0.2110673126       -1.7077308907
 C          5.5949222681       -2.1332154180       -3.6623012579
 C          1.0319876540        0.2893071261        3.6824917990
 C         -1.2046758407        0.0825311193       -0.4695806656
 C          1.5868515432        1.9776744659        0.3124298634
 C          0.2555048940        0.4796010827       -3.9594970195
 C          3.0354917985       -0.7457089803        2.8376014111
 C         -2.7420455759       -1.0951294012        0.9605025782
 C          2.9961356664        1.6277165450        3.2929365287
 C         -3.2878720492        1.1179098938        0.1550053227
 C          1.2598992050        4.3442279150        0.0055089904
 C         -1.6332717787       -0.9645655672       -3.5750211984
 C          3.0753244199        3.2129753320       -1.1208553287
 C          0.6141646020       -1.8425406678       -3.4321751973
 C          0.9967206502       -2.1193976869        3.1694632570
 C         -0.6161095364       -2.1847896723        0.3052531157
 C          0.9115755773        2.7388165878        4.0028104768
 C         -1.7157090680        2.3309130639       -1.3289105750
 C         -0.2681791765        3.0813263508        1.4938358105
 C         -2.0227390996        1.4418124512       -3.9516044206
 C          3.4408138512        0.7845367349       -0.7946827614
 C          2.5666238540       -0.3470059120       -3.7579399329
 C          1.7026257466       -0.8469895495        3.2453602300
 C         -1.5325386094       -1.0534551072        0.2644052602
 C          1.6638464232        1.5319353088        3.6925152794
 C         -2.0748045371        1.1683651227       -0.5308475200
 C          0.8679993216        3.1386823512        0.5864438913
 C         -1.1237881832        0.3002308484       -3.8658961423
 C          2.6937061540        2.0066210685       -0.5307018923
 C          1.1282037618       -0.5779589855       -3.7315037515
 C          3.6588583772        0.4850545707        2.8801399290
 C         -3.5933242106       -0.0089666649        0.8956152464
 C          2.3501066407        4.3560349210       -0.8448274571
 C         -0.7541339406       -2.0137217037       -3.3709491154
 C          0.7094225319       -4.3147294940        2.4346083379
 C          0.0658357994       -4.3022290174        1.0231773951
 C         -1.0827434118        3.8858801440        4.3673631867
 C         -1.8067512837        3.9752935786        2.9835608595
 C         -2.1606398457        4.2582744596       -2.5418926828
 C         -2.4454675212        3.7316908583       -3.9876369152
 C          5.1234640887       -0.4576117321       -1.8377009301
 C          4.7850138194       -0.8928367643       -3.2876436972
 Br         5.4810576782        0.6271164898        2.3210318588
 Br        -5.2399626826       -0.0595278078        1.8642185397
 Br         2.8616803742        6.0032017753       -1.6676810606
 Br        -1.4602439189       -3.7414698918       -2.9593306626
 N          1.4812691416       -3.1162435057        2.5643952370
 N         -0.8647089504       -3.2199061763        0.9816045798
 N         -0.3119783428        2.6900613676        4.3227906819
 N         -2.5523405459        3.2297878444       -1.6327926393
 N         -0.7952468841        4.1202581716        1.9864941032
 N         -1.5872439108        2.6106257676       -4.1668374565
 N          4.4286822792        0.7626175559       -1.5785302799
 N          3.3883727299       -1.2041491606       -3.3282936054
 H          0.0773912774       -6.9364981779        3.0812645586
 H          1.5446575983       -7.6719222803        2.4282222679
 H         -0.3269543389       -7.7300902162        0.7720045730
 H          1.0278411396       -6.7614299582        0.1853270587
 H         -2.4820642396        5.9308698605        5.6070124404
 H         -3.7904043760        4.9314281734        6.2476582758
 H         -4.3867535557        4.2051485604        3.9597863617
 H         -4.4160199103        5.9683155602        4.0641536822
 H         -1.5840882278        6.8761116647       -3.2357225116
 H         -3.2347043665        7.4936205771       -3.1144561739
 H         -2.6647587819        6.8532001124       -5.4596982384
 H         -3.9902211455        5.8732229474       -4.8242932359
 H          8.4883083712       -1.2425378592       -2.0003774458
 H          7.1789672041       -2.2666072032       -1.4043385250
 H          7.6417138368       -2.7802384363       -3.7807873288
 H          7.3910249772       -1.0856194705       -4.2117364384
 H          2.0518098450       -5.5249043246        3.5857822961
 H          2.4446349130       -5.4295897003        1.8668148793
 H         -1.1170733919       -5.5865548156       -0.2185534718
 H         -1.5060897248       -5.6699097578        1.5024671153
 H         -2.6874381480        2.8890435264        5.3692363034
 H         -1.5965217375        3.7715389878        6.4420210507
 H         -2.1486453702        6.0845726740        3.0577802091
 H         -3.2530184551        5.2026896195        1.9980831542
 H         -4.0256476800        5.2793136284       -2.3168352945
 H         -2.7314025931        5.8858907817       -1.2789536537
 H         -1.0515969804        5.0367007816       -4.9503279058
 H         -2.3411562839        4.4454932339       -6.0025582550
 H          6.8950065666        0.6246393803       -2.3562247711
 H          6.8438006016        0.0782254468       -0.6775089464
 H          5.2894744724       -2.9533245043       -3.0103693575
 H          5.3515472702       -2.4110171982       -4.6898941015
 H          0.0008004017        0.2381016429        3.9958474401
 H         -0.2693827695        0.1221889434       -1.0098751899
 H          1.2850205062        1.0469894763        0.7717734206
 H          0.6280987533        1.4667434737       -4.1850783308
 H          3.5473327986       -1.6317074095        2.4974190559
 H         -2.9852642653       -1.9777036341        1.5297269967
 H          3.4995853935        2.5827607754        3.2957618037
 H         -3.9567490172        1.9614984642        0.0971676151
 H          0.7000640102        5.2383558541        0.2279644379
 H         -2.6990297002       -1.1196565800       -3.4994738138
 H          3.9313947520        3.2244475555       -1.7759848461
 H          1.2982230707       -2.6569529437       -3.2547305052
 H          0.0074454471       -2.1435251790        3.6472908719
 H          0.2999469309       -2.0774524152       -0.2967175405
 H          1.4541234050        3.6890509241        3.8925624018
 H         -0.6672317151        2.3687770577       -1.6587428534
 H         -0.6303507567        2.0701685238        1.7304649133
 H         -3.0871498034        1.2343363995       -3.7687509610
 H          3.0894701366       -0.1127485408       -0.2611541372
 H          2.8841013868        0.6297812468       -4.1486436145
 H         -0.1118780775       -4.3533504934        3.1701180641
 H          0.8750865875       -4.1780123409        0.2825532762
 H         -0.4531455623        4.7867648488        4.4697617902
 H         -2.3682165982        3.0345368433        2.8597607048
 H         -1.0779919110        4.4592348086       -2.4867974431
 H         -3.5128488003        3.4541164994       -4.0334909780
 H          4.8026544562       -1.2659223217       -1.1573915122
 H          5.0342757567       -0.0475394696       -3.9511964238
 C         -4.1235293146       -9.1727994810        1.9043600422
 C         -4.8608830528       -8.3297674152        0.8617675652
 O         -5.0452981242       -9.8376346708        2.7525109312
 C         -5.9316154622      -10.6435577415        1.9945542673
 C         -6.6699083370       -9.7985756429        0.9544139052
 O         -5.7472926542       -9.1376007486        0.1051553902
 H         -3.5137947274       -8.5452396788        2.5540081866
 H         -5.4287138733       -7.5344548639        1.3659570715
 H         -5.3640416596      -11.4372977924        1.4874491405
 H         -7.2988953663       -9.0544108703        1.4642755534
 H         -4.1633811689       -7.8924365579        0.1473545130
 H         -6.6296675101      -11.0829534737        2.7072630051
 H         -7.2850797929      -10.4250326031        0.3083348692
 H         -3.4906527126       -9.9148807233        1.3965368019