142
-211.12637094
 C          6.9073979196       -1.5891795328        2.8905688548
 C          7.6798307616       -1.4839676403        1.5803568515
 C         -5.7307457494        2.8397947165        2.1678586718
 C         -6.0559402219        1.8177957429        3.2523945419
 C         -0.7770056563        7.5458016346       -1.9070299577
 C         -1.5010379359        7.2048559733       -0.6091196422
 C          0.6844658718       -7.4744051128       -2.6318279277
 C          1.0117710229       -6.5212729703       -3.7765661281
 C          5.9818002309       -0.3910043115        3.0578257546
 C          6.7122217851       -1.3936773361        0.4067892726
 C         -4.2588874001        3.2359566570        2.2336997798
 C         -5.1739412754        0.5834463189        3.1027092997
 C          0.2994522011        6.5075056726       -2.2003876877
 C         -2.1144363314        5.8121251933       -0.6948713321
 C          0.8849621339       -6.7783318202       -1.2908383801
 C          0.1442802544       -5.2715623972       -3.6904479461
 C          0.8409474736        2.1383697942        2.1638135875
 C          2.5411153721        1.9926561385       -2.1909605804
 C         -1.1755308716       -2.3038116765        2.1164673326
 C         -0.6701636597        0.0088405447       -1.2349577241
 C          2.8937551767        3.3890012659        2.3003767258
 C          3.0954313182       -0.2698771229       -2.7966332552
 C          0.7685609540        4.5285748734        2.4509090087
 C          1.2679026145        0.8671483868       -3.8978490911
 C          0.3262672338       -1.5603323001        3.8458414692
 C         -2.8864810298        0.9209087004       -1.4684054646
 C          0.9496840417       -3.4000290590        2.4062460385
 C         -2.5001634566       -1.4367806335       -1.8367938406
 C          2.9935226659        0.9318945542        2.0186613710
 C          4.3648417326        0.8567179875       -0.9863234921
 C         -1.3571400135        3.2799157778        2.2958868385
 C          0.5665413138        3.1163925857       -3.1576414758
 C         -1.8027576629       -0.3584602266        3.5078595815
 C         -1.0109042199        2.4279855739       -0.8966590543
 C         -0.5668430970       -4.1274837484        0.5832973955
 C         -0.2116678984       -2.3690715491       -1.7340135677
 C          2.2306106982        2.1656875768        2.1633957340
 C          3.3302701742        0.8632556856       -2.0141936034
 C          0.1027423487        3.3130396087        2.3090798060
 C          1.4902372784        1.9931277982       -3.1069092277
 C         -0.8826828871       -1.4318070362        3.1628289807
 C         -1.5323677902        1.1013541072       -1.1889909961
 C         -0.2656636252       -3.2787171348        1.7277909150
 C         -1.1382822402       -1.2533390122       -1.5910594526
 C          2.1529237831        4.5446190002        2.4360950160
 C          2.0848016618       -0.2381766913       -3.7369166644
 C          1.2165544764       -2.5461603806        3.4571427330
 C         -3.3459840804       -0.3487619659       -1.7607026272
 C          4.9974337179       -0.2799953591        1.8901412108
 C          5.7746615929       -0.1959951511        0.5512922787
 C         -3.3698353429        2.0054097262        2.0575403220
 C         -3.6927305387        0.9547989242        3.1564220902
 C         -0.2982471095        5.1057963770       -2.3028688651
 C         -1.0513838511        4.7551171064       -0.9806119191
 C          0.0208127533       -5.5242839863       -1.1828348980
 C          0.3426196194       -4.5524495370       -2.3568514833
 Br         3.0568866239        6.2236030663        2.6033921810
 Br         1.7890467160       -1.7696639354       -4.8368903743
 Br         2.8740336365       -2.7142635226        4.3980754156
 Br        -5.2026628321       -0.5976146158       -2.0850268749
 N          4.2549281224        0.9304246968        2.0389814157
 N          4.8183878062       -0.2229974125       -0.5158688162
 N         -1.9537672406        2.1927997712        2.0692336386
 N          0.7351506373        4.1349247920       -2.4265718544
 N         -2.8900756440       -0.1963700171        2.8882248470
 N         -1.6682270177        3.4775116881       -1.1573046885
 N          0.3262913335       -4.8287982457        0.0272039685
 N         -0.5673984768       -3.4586413952       -2.2647329641
 H          6.3155433497       -2.5065372714        2.8963571946
 H          7.5987674443       -1.6298308057        3.7336204050
 H          8.3250011802       -2.3548930250        1.4541059000
 H          8.3133855668       -0.5942704492        1.6001966788
 H         -5.9480370864        2.4112186591        1.1874738831
 H         -6.3532120183        3.7278992475        2.2930714293
 H         -5.8933005397        2.2651002943        4.2362683391
 H         -7.1048347243        1.5251712594        3.1857971692
 H         -1.4948132938        7.5685616805       -2.7300108425
 H         -0.3180964293        8.5328601558       -1.8313658900
 H         -2.2859158124        7.9375403857       -0.4138566910
 H         -0.7904711133        7.2415984527        0.2196934292
 H          1.3246990272       -8.3567462844       -2.6832059604
 H         -0.3531290137       -7.8047849418       -2.7186718668
 H          0.8428212734       -7.0136449120       -4.7354868254
 H          2.0645147830       -6.2354328050       -3.7258117420
 H          5.4106437581       -0.4820150963        3.9836297574
 H          6.5619511188        0.5321220815        3.1045415741
 H          7.2588181611       -1.2956981438       -0.5333389980
 H          6.1043237322       -2.2981848339        0.3504434923
 H         -4.0499178672        3.7032641118        3.2000718293
 H         -4.0293479041        3.9541758770        1.4427187349
 H         -5.3700841702        0.0940671028        2.1479306201
 H         -5.3839853050       -0.1336115780        3.8989010317
 H          1.0492505488        6.5046577652       -1.4072253436
 H          0.8054907468        6.7380996449       -3.1400134942
 H         -2.8595452182        5.7744329427       -1.4911451143
 H         -2.6132098410        5.5568672645        0.2420964364
 H          1.9293852748       -6.4859496373       -1.1704577242
 H          0.6266707638       -7.4499753871       -0.4695310592
 H         -0.9097805977       -5.5361384163       -3.7838246098
 H          0.3931409002       -4.5794205797       -4.4967944174
 H          0.3013450446        1.2096599668        2.0533903033
 H          2.7021447366        2.8798776940       -1.5989362268
 H         -2.1135999069       -2.1845514182        1.5990261650
 H          0.3802322958        0.1513422099       -1.0233171945
 H          3.9716704955        3.4003366970        2.2983815416
 H          3.7108382423       -1.1435682282       -2.6529241253
 H          0.2118296898        5.4464123803        2.5660487550
 H          0.4646164752        0.8556035948       -4.6190096473
 H          0.5675716915       -0.8948602136        4.6615208831
 H         -3.5431467164        1.7760988936       -1.4507307222
 H          1.6518124960       -4.1559706588        2.0930597520
 H         -2.8676768564       -2.4238785977       -2.0663266523
 H          2.3997283661        0.0121073142        1.8999325073
 H          4.6927573952        1.8434333439       -0.6315820063
 H         -1.8540313336        4.2397533538        2.4767188683
 H         -0.3029288664        3.0029621650       -3.8211243926
 H         -1.4766920655        0.3158704112        4.3139173657
 H         -0.0043750087        2.4557171553       -0.4573522270
 H         -1.6037738383       -4.0933303039        0.2234736641
 H          0.8185224095       -2.1838405358       -1.3907160815
 H          4.3420195231       -1.1674918978        1.8535026553
 H          6.3423863278        0.7490533549        0.5650282567
 H         -3.5819358298        1.5276902087        1.0928558747
 H         -3.4427597087        1.4098358843        4.1336898015
 H         -1.0297498412        5.0480749832       -3.1277407979
 H         -0.2921007473        4.7317592575       -0.1814560163
 H         -1.0504066580       -5.7743007162       -1.2545303870
 H          1.3911388107       -4.2284174770       -2.2401009655
 C         -6.3834617599       -4.6285750136       -2.6671837658
 C         -4.9182207750       -4.8242006829       -2.2751028385
 O         -7.2276616701       -4.8471585518       -1.5493712862
 C         -6.8827356903       -3.9652556589       -0.4943709373
 C         -5.4182141190       -4.1548902601       -0.0958511816
 O         -4.5636104013       -3.9569443001       -1.2098838077
 H         -6.6825334852       -5.3536300603       -3.4241793775
 H         -4.7565837909       -5.8672413547       -1.9658561551
 H         -7.0448669373       -2.9269469411       -0.8160485361
 H         -5.2722610672       -5.1708690074        0.3000185962
 H         -4.2585434215       -4.5768374113       -3.1069726903
 H         -7.5446415526       -4.2077852063        0.3370421760
 H         -5.1240627317       -3.4194504378        0.6530659618
 H         -6.5313124653       -3.6066212528       -3.0436999923