142
-211.12728568
 C          2.5343806326       -2.6229923484        8.2854853741
 C          3.9417031316       -2.0506264825        8.1430917173
 C         -7.4846272566       -2.3833996475        0.9191540917
 C         -7.1693385017       -3.7315530664        0.2817858764
 C          1.7271996639        7.9463354876        0.2145543935
 C          0.2340012220        7.7037986989        0.0155854330
 C          0.4857273416        0.8274310471       -9.0218679292
 C          1.7555847521        1.4992615048       -8.5090079197
 C          1.5104826317       -1.7048247001        7.6265639485
 C          4.2829923239       -1.8245510423        6.6739932921
 C         -6.2566276577       -1.8476787308        1.6439395219
 C         -5.9981580900       -3.5938334136       -0.6824313650
 C          2.3725716425        6.7645404250        0.9304805237
 C         -0.0025533292        6.4086167276       -0.7542619973
 C          0.1991281430       -0.4446174857       -8.2320125450
 C          1.6310026468        1.8094612507       -7.0215690652
 C         -1.6778221021       -0.4977709856        3.0449616186
 C          3.3693471475        1.8766834192        2.1290767735
 C         -1.7762716974       -2.5315457016       -3.0122168570
 C          0.7847499059        1.4525245460       -2.0453870307
 C         -0.5649006790        1.3572627834        4.1060522345
 C          3.9202649752       -0.4505639256        1.8250105182
 C         -2.3252266259        1.7602383250        2.4994993907
 C          3.7963319397        1.0265337968       -0.0824719633
 C         -0.8301337916       -4.6033669812       -2.2285832313
 C          0.4239769550        0.4963746710        0.1368076539
 C          0.0343816172       -3.5576792448       -4.2265254071
 C          1.0180416971       -0.9245159625       -1.7201004180
 C          0.1835079518       -0.9475582032        4.6051656264
 C          3.4383521973        0.4026609723        4.1003647370
 C         -3.5480711621       -0.0940517764        1.4560552663
 C          3.1134508044        3.3701079655        0.1611081420
 C         -2.7430216676       -3.6443912743       -1.0138794507
 C          0.3762874537        2.9338228982       -0.0907412317
 C         -0.8468232174       -1.3761626437       -4.9856918043
 C          1.4023045939       -0.0058338067       -3.9625263081
 C         -0.7062845383       -0.0201646530        3.9186853647
 C          3.5941538311        0.6147854117        2.6686632490
 C         -2.4933907558        0.3847456192        2.3396828922
 C          3.4594245867        2.0889160783        0.7554825558
 C         -1.7650096908       -3.5777559437       -2.0917129974
 C          0.4916452764        1.6161642570       -0.6941316895
 C         -0.8799648330       -2.5113091280       -4.0751399945
 C          1.0635907302        0.1901930278       -2.5589153837
 C         -1.3720045384        2.2185504046        3.3910172756
 C          4.0187503660       -0.2225548105        0.4681347432
 C          0.0469328060       -4.5792586022       -3.2988381179
 C          0.6723762812       -0.7532331376       -0.3943997928
 C          1.8461623706       -1.5021891524        6.1470286842
 C          3.2629588606       -0.8915008286        6.0245570909
 C         -5.0602021644       -1.7019661191        0.6917461472
 C         -4.7483408261       -3.0525350303        0.0269325124
 C          2.1549713026        5.4751124026        0.1451254802
 C          0.6172797624        5.2283513532       -0.0141305242
 C          0.0541941649       -0.1437347718       -6.7421531456
 C          1.3570322811        0.5411307409       -6.2183063614
 Br        -1.1624871450        4.1044410843        3.6300869492
 Br         4.4417105305       -1.6747010692       -0.7020928107
 Br         1.3148605289       -6.0025530103       -3.4935646435
 Br         0.5752322245       -2.2763807122        0.7411802805
 N          0.9288942828       -0.5778924315        5.5543293695
 N          3.5426391411       -0.7386284497        4.6294280990
 N         -3.9360893224       -1.2948592614        1.4804424470
 N          2.6891198368        4.3503068263        0.8412043623
 N         -3.7384865497       -2.8693723497       -0.9725746742
 N          0.4709662943        4.0124177758       -0.7463678443
 N         -0.0913567337       -1.3514190229       -6.0003642590
 N          1.1401734733        0.8629074113       -4.8435795143
 H          2.4931404421       -3.6072893382        7.8137309492
 H          2.2861690848       -2.7443630302        9.3414449721
 H          4.6682326906       -2.7345853530        8.5851425249
 H          4.0036389585       -1.1008021053        8.6793050539
 H         -7.7909223738       -1.6764782486        0.1447127575
 H         -8.3077449257       -2.4853705521        1.6286473180
 H         -6.9177634814       -4.4536560740        1.0615060337
 H         -8.0408955245       -4.1060706882       -0.2580055459
 H          2.2059541848        8.0857538861       -0.7575969471
 H          1.8820608288        8.8544377564        0.7994426223
 H         -0.2094923287        8.5388599094       -0.5294747191
 H         -0.2553177043        7.6367916787        0.9899070032
 H          0.5937376667        0.5817155727      -10.0796666473
 H         -0.3566790995        1.5154657308       -8.9197424822
 H          1.9381253086        2.4234630738       -9.0600430809
 H          2.6084353361        0.8361949531       -8.6710998075
 H          0.5086129799       -2.1328592941        7.7040298008
 H          1.5006534246       -0.7308198887        8.1188935127
 H          5.2769313017       -1.3830940539        6.5771429853
 H          4.2809200983       -2.7717649088        6.1323438755
 H         -5.9696652858       -2.5267487593        2.4491361918
 H         -6.4675667535       -0.8718412848        2.0876929354
 H         -6.2554679385       -2.9078699566       -1.4919112363
 H         -5.7532930696       -4.5605836606       -1.1278238298
 H          1.9425602379        6.6417316447        1.9256108371
 H          3.4461539347        6.9282519524        1.0432222681
 H          0.4376983510        6.4691975848       -1.7507790578
 H         -1.0724230780        6.2263266225       -0.8683858733
 H          1.0103947621       -1.1626513154       -8.3618268657
 H         -0.7231283795       -0.9116659361       -8.5837580013
 H          0.8140150804        2.5113941609       -6.8468509516
 H          2.5510136725        2.2646317240       -6.6497001359
 H         -1.8150220352       -1.5570852652        2.8964608103
 H          3.1055893955        2.7125198858        2.7582171393
 H         -2.4974593110       -1.7401831784       -2.8804124817
 H          0.8263106883        2.3144279269       -2.6906794849
 H          0.1794263724        1.7155867222        4.7985258016
 H          4.0772023550       -1.4274381725        2.2532576972
 H         -2.9425923987        2.4461685889        1.9385782744
 H          3.8638094743        1.1752058514       -1.1497083338
 H         -0.7962276254       -5.4096426802       -1.5119901951
 H          0.1947743980        0.6079142570        1.1857744773
 H          0.7172172296       -3.5390440878       -5.0606269646
 H          1.2480551362       -1.9060946381       -2.1043899763
 H          0.1755291860       -1.9788306188        4.2261336569
 H          3.1975710028        1.3004782117        4.6870471010
 H         -4.0063969483        0.6682131111        0.8112974702
 H          3.2013506617        3.4182086010       -0.9345147931
 H         -2.5828642179       -4.4367005691       -0.2691489914
 H          0.2581257564        2.9314242980        1.0027642466
 H         -1.5010840804       -0.5330570892       -4.7195766374
 H          1.8874808945       -0.9621319286       -4.2025568668
 H          1.8375172936       -2.4739768688        5.6230870195
 H          3.2477413096        0.0835913689        6.5424036847
 H         -5.2978087607       -0.9650281902       -0.0952063429
 H         -4.4263509871       -3.7602877737        0.8103878149
 H          2.5737609885        5.5607806865       -0.8724003972
 H          0.1995961541        5.1465672658        1.0025377103
 H         -0.7802147013        0.5568489019       -6.5628191542
 H          2.1741642961       -0.1882742938       -6.3450528845
 C         -7.0151103586        3.2911342951        0.0292174905
 C         -5.8406217169        3.5217854685        0.9809672219
 O         -6.7864643881        3.9356095500       -1.2118418943
 C         -5.5761063568        3.4858284826       -1.7950176579
 C         -4.4017338958        3.7215070112       -0.8445543683
 O         -4.6286989481        3.0694279270        0.3953944450
 H         -7.9314759702        3.7211880305        0.4331316528
 H         -5.7558686040        4.5930188987        1.2110569576
 H         -5.6542597885        2.4132721251       -2.0266011892
 H         -4.2800023201        4.7996177018       -0.6708659221
 H         -5.9683836258        2.9532367049        1.9027008229
 H         -5.4496027039        4.0548206641       -2.7159121719
 H         -3.4797215474        3.3034574722       -1.2499080309
 H         -7.1509558126        2.2123166701       -0.1361295337