142
-211.12782743
 C          3.7877919108       -6.7254807727        2.4241849492
 C          3.4559553627       -6.9140355213        0.9474371787
 C         -4.9163829240        2.6103334270        4.3680988391
 C         -5.3720780255        2.3958797253        2.9283073505
 C         -3.5140042678        4.3634685032       -4.4994869880
 C         -3.3681217273        3.7759013284       -5.8995693724
 C          8.2535655671        0.2474165662       -0.9700509458
 C          8.3718679384       -0.2401788405       -2.4104495408
 C          3.9261053847       -5.2431392279        2.7514933680
 C          2.1767395465       -6.1667078652        0.5904856367
 C         -3.6220344587        1.8503827794        4.6350359589
 C         -4.2851231991        2.8395563082        1.9553872817
 C         -3.6000045570        3.2503762340       -3.4612465210
 C         -2.1376725473        2.8790238148       -5.9760894878
 C          7.0226572475        1.1309497676       -0.8072614000
 C          7.1130235946       -0.9962657593       -2.8195212832
 C          0.9172951138       -0.1726009954        3.5377316684
 C         -0.2744540348       -1.1387951256       -1.0662451934
 C          1.2881612845        1.4215666621        0.2271951824
 C          1.3803307323       -0.3753386659       -4.2788108110
 C          3.2767018616       -0.3097655023        3.0729554448
 C         -1.4583923920       -2.7813982742        0.2356580289
 C          2.2292785895        1.8427484328        3.4000437057
 C         -2.6591737874       -0.9493055029       -0.7882630791
 C          0.1935076655        3.4974355908       -0.3137327866
 C          0.0496738031       -2.3784165385       -4.1435955532
 C          2.4502769339        3.0798468856       -1.0745747622
 C          2.3926476873       -2.4378240355       -3.5558606289
 C          1.9210974696       -2.3842630480        3.1206452461
 C          0.9942907030       -2.9948667518       -0.0544648672
 C         -0.2089401167        2.0246415814        3.7045038809
 C         -1.4432135318        0.7421621075       -2.1339973403
 C         -1.0043074978        1.7948958581        1.0338689395
 C         -1.0515030264       -0.2497291135       -4.7175743357
 C          3.5935472671        0.9538171087       -0.5116114598
 C          3.7496052577       -0.3634736358       -3.6035498694
 C          2.0440680712       -0.9395630373        3.2649048377
 C         -0.2621870039       -2.3001818749       -0.2996801360
 C          0.9968057579        1.2184205826        3.5875278765
 C         -1.4644026980       -0.4590745135       -1.3139220386
 C          0.1678244773        2.2455054007        0.2996549024
 C          0.1493214787       -1.0149293507       -4.4172598308
 C          2.4323987903        1.8310012248       -0.4508476403
 C          2.4977278924       -1.0724056603       -3.8341018474
 C          3.3478628417        1.0659403954        3.1554540330
 C         -2.6314048328       -2.0961888684       -0.0164207270
 C          1.3313173789        3.8866193302       -0.9961417451
 C          1.1757478871       -3.0659477287       -3.7266478677
 C          2.6467237205       -4.4829993088        2.4042189565
 C          2.3079350891       -4.6747614878        0.9035245370
 C         -2.5180966407        2.2994078037        3.6812665032
 C         -2.9854104128        2.0809878307        2.2042551506
 C         -2.3659062585        2.3558990848       -3.5186747801
 C         -2.2182166157        1.7488957342       -4.9530158571
 C          5.7510327812        0.3780564000       -1.2039053521
 C          5.8722641321       -0.1172393280       -2.6679579435
 Br         5.0306971549        1.9300974885        2.8868605338
 Br        -4.2651941816       -2.7440763212        0.7330029252
 Br         1.3503101210        5.5882767209       -1.8650679897
 Br         1.0274979230       -4.9313956537       -3.3406300387
 N          2.8478200508       -3.0827475832        2.6230278536
 N          1.0555304787       -4.0340863611        0.6574288599
 N         -1.3519891605        1.4987030365        3.8420167033
 N         -2.4938871849        1.2663228996       -2.6045014857
 N         -1.9491148184        2.5726939854        1.3536929805
 N         -1.0097214408        0.9967286178       -4.9337467722
 N          4.6397549377        1.2727410781       -1.1395156592
 N          4.7010598099       -0.8870498463       -2.9594081387
 H          2.9927491943       -7.1598774752        3.0343167742
 H          4.7189169926       -7.2397948563        2.6679313083
 H          3.3285407923       -7.9742783246        0.7236311660
 H          4.2794738950       -6.5374004758        0.3368098576
 H         -4.7538161729        3.6761853827        4.5440163339
 H         -5.6865457553        2.2681200052        5.0608171595
 H         -5.5913092982        1.3376646860        2.7697087330
 H         -6.2841202123        2.9625594151        2.7353603024
 H         -2.6528521888        4.9985762073       -4.2797250806
 H         -4.4114615289        4.9816766606       -4.4453935497
 H         -3.2779887256        4.5779641467       -6.6338598560
 H         -4.2585831876        3.1924006234       -6.1446543873
 H          9.1434215705        0.8138428864       -0.6912003087
 H          8.1763697331       -0.6107010169       -0.2988020773
 H          9.2389018407       -0.8946237266       -2.5147009536
 H          8.5135317307        0.6157591490       -3.0740597341
 H          4.1367726488       -5.1044979432        3.8139291474
 H          4.7504853094       -4.8066198527        2.1850523267
 H          1.9494448807       -6.2817332723       -0.4710225250
 H          1.3348464103       -6.5639118990        1.1595930297
 H         -3.7781165881        0.7785325344        4.5030899443
 H         -3.2851575647        2.0189671888        5.6599160979
 H         -4.0886285249        3.9072138592        2.0657910376
 H         -4.5991993829        2.6589738267        0.9258344250
 H         -4.4832572535        2.6340054557       -3.6363519985
 H         -3.6757570739        3.6713346215       -2.4570848933
 H         -1.2341296801        3.4585052848       -5.7797519234
 H         -2.0474309694        2.4401016656       -6.9718753313
 H          7.1069633349        2.0176472023       -1.4374407245
 H          6.9233218704        1.4623097237        0.2281122039
 H          6.9854161177       -1.8827650279       -2.1959584387
 H          7.1844119393       -1.3229833615       -3.8590030329
 H         -0.0463372139       -0.6354889702        3.6838509837
 H          0.6483955713       -0.7617551029       -1.4837690017
 H          1.2688908171        0.4562515220        0.7129324885
 H          1.4351578664        0.6805186674       -4.4941479545
 H          4.1450483072       -0.9130455470        2.8618387925
 H         -1.4391115735       -3.6798586846        0.8311779332
 H          2.3064182307        2.9190545307        3.4344511159
 H         -3.5760443612       -0.4192174384       -0.9898543849
 H         -0.6765593109        4.1305491571       -0.2472622173
 H         -0.8969738072       -2.8874741294       -4.2451005259
 H          3.3397373692        3.3876431306       -1.6002709969
 H          3.2645897578       -2.9702819475       -3.2112295370
 H          0.9619037971       -2.8161274072        3.4379693224
 H          1.8821402400       -2.5517843858       -0.5331863162
 H         -0.0713079537        3.1118024128        3.6095276744
 H         -0.4436151678        1.1595999041       -2.3249791544
 H         -1.0062382520        0.7281712999        1.3022266692
 H         -1.9982644741       -0.8088449891       -4.6885316623
 H          3.4948837016       -0.0014458111        0.0283212416
 H          3.7956156875        0.6627924497       -3.9934215645
 H          1.7927912142       -4.8685904785        2.9866012652
 H          3.1230483369       -4.2251322682        0.3092205875
 H         -2.3051905959        3.3756289854        3.8044820085
 H         -3.1334355403        0.9959782001        2.0782074318
 H         -1.4498510544        2.9387626804       -3.3282643727
 H         -3.1024587684        1.1137508375       -5.1357461054
 H          5.6058127291       -0.5043579511       -0.5558372433
 H          5.9446040368        0.7750173820       -3.3127431672
 C         -9.5344638394       -0.0784963091        5.2713565848
 C         -9.7874598140        0.9890129832        4.2051238817
 O        -10.2192425699        0.2447595540        6.4704313548
 C        -11.6091173278        0.3854377420        6.2287036292
 C        -11.8644815610        1.4496223610        5.1592172363
 O        -11.1773056050        1.1291028839        3.9613714560
 H         -8.4767790372       -0.1319604639        5.5286899463
 H         -9.3767091816        1.9511787874        4.5435858453
 H        -12.0235152534       -0.5772421653        5.8960671896
 H        -11.5247044978        2.4289550233        5.5265839583
 H         -9.3376474357        0.7046460120        3.2540227899
 H        -12.0567209617        0.6739177187        7.1799420584
 H        -12.9225028263        1.4963042128        4.9010191381
 H         -9.8793047383       -1.0552094361        4.9026248729