142
-211.13175444
 C          3.6163929997       -6.3438027593        3.4260256351
 C          2.6324240136       -6.7757325583        2.3436277605
 C         -2.6095782144        4.5816458004        6.4119529305
 C         -3.6962073655        4.1570641747        5.4292396375
 C         -5.4276021255        4.1630899398       -2.2476079074
 C         -5.9878493850        3.2893272536       -3.3653477593
 C          6.3584318129       -1.2649874931       -3.2206835158
 C          5.7543306171       -2.0520071892       -4.3791224813
 C          3.9749872951       -4.8716357280        3.2595460782
 C          1.3777984348       -5.9121317214        2.3912045879
 C         -1.3884496282        3.6785149987        6.2798275850
 C         -3.1639426519        4.1853699101        4.0008492392
 C         -5.0766736394        3.3127749373       -1.0318429530
 C         -4.9860165485        2.2044520794       -3.7447471741
 C          5.4151236355       -0.1491655841       -2.7879192422
 C          4.3980640058       -2.6228919030       -3.9813995886
 C          1.9809997954        0.6948467768        3.8969102607
 C         -1.2826325390       -1.0037800326        0.7066410593
 C          0.8453377408        1.4289413074        0.4833515720
 C         -1.2900147640       -1.2452487838       -2.9577802183
 C          3.8400914696        0.0506442419        2.5073113469
 C         -1.8262445058       -2.1297433676        2.7637777422
 C          3.1961645635        2.3734508189        2.6690036401
 C         -3.2601848433       -0.3717305952        1.9272916222
 C         -0.2499795823        3.4943669389       -0.0932546892
 C         -2.5562960700       -2.8756190309       -1.7169479430
 C          1.3476308966        2.5000803954       -1.6131652654
 C         -0.2190451881       -3.2622087980       -2.1891673243
 C          2.5407087054       -1.6969344665        3.6897303094
 C          0.2068001322       -2.7960080600        1.5122876676
 C          1.1965457856        3.0421586996        3.9428926850
 C         -2.7049872293        0.7880688853       -0.1933562852
 C         -0.7722845762        2.3876495291        2.0652579583
 C         -3.6349127061       -0.7495213502       -2.3234131151
 C          2.4946231096        0.3834900268       -1.0204600910
 C          1.1152111996       -1.5433683040       -3.3829641120
 C          2.8029794752       -0.2981711145        3.3765772394
 C         -0.9831420854       -1.9695757312        1.6626415264
 C          2.1577684236        2.0292276284        3.5334433207
 C         -2.4139734530       -0.2014428571        0.8322911076
 C         -0.0572359585        2.4411135515        0.7997584984
 C         -2.4909981735       -1.6473596648       -2.3749960804
 C          1.5552275576        1.4531848238       -0.7131959289
 C         -0.1503562161       -2.0347954905       -2.8531588541
 C          4.0238694126        1.3784802447        2.1797480977
 C         -2.9460114840       -1.3280771614        2.8752475007
 C          0.4492614435        3.4975772689       -1.2862369200
 C         -1.4219282390       -3.6639765603       -1.6448637000
 C          2.7257284205       -3.9928804228        3.3114386066
 C          1.7232709973       -4.4320678564        2.2135831803
 C         -0.8331787283        3.7130076070        4.8583191251
 C         -1.9492009278        3.2748176560        3.8536343251
 C         -4.0676583894        2.2280428570       -1.3956165329
 C         -4.6445254213        1.3310394979       -2.5404450749
 C          4.0532794622       -0.7108593168       -2.3753286008
 C          3.4393396301       -1.5129968678       -3.5516580155
 Br         5.4379229882        1.8574533440        0.9878084754
 Br        -4.0908659864       -1.5374328878        4.3904261002
 Br         0.1504318665        4.9201461380       -2.5249750068
 Br        -1.5183380741       -5.3378791364       -0.7283497758
 N          3.0865466532       -2.6339779149        3.0430296504
 N          0.5361185991       -3.6548605192        2.3750290924
 N          0.2221390696        2.7697037083        4.7034050007
 N         -3.8191131674        1.3819489389       -0.2724896933
 N         -1.4034603881        3.3767027957        2.5376847471
 N         -3.6171168510        0.3973963430       -2.8594918827
 N          3.1689501033        0.3717867336       -2.0857473648
 N          2.2148859536       -2.0918588532       -3.0857399837
 H          3.1673544764       -6.4997275197        4.4094307341
 H          4.5239264870       -6.9473095774        3.3703012566
 H          2.3555815400       -7.8217866675        2.4836013378
 H          3.1029920666       -6.6799403720        1.3626447424
 H         -2.3197995816        5.6155498742        6.2106880621
 H         -2.9892395044        4.5307177848        7.4336606770
 H         -4.0308799217        3.1458332613        5.6713469843
 H         -4.5551735535        4.8249934765        5.5106198820
 H         -4.5310936607        4.6767979527       -2.6019320483
 H         -6.1596652154        4.9201847948       -1.9623484923
 H         -6.2095383999        3.9002407530       -4.2417820248
 H         -6.9190839557        2.8246649196       -3.0333221759
 H          7.3153939340       -0.8335409943       -3.5182532922
 H          6.5389207947       -1.9358870909       -2.3778942635
 H          6.4212338288       -2.8663897048       -4.6673543444
 H          5.6324614562       -1.3934895624       -5.2419606900
 H          4.6585410670       -4.5532339256        4.0493225316
 H          4.4699036699       -4.7096732292        2.3004496980
 H          0.6808865338       -6.2046734100        1.6035315454
 H          0.8710568343       -6.0331733778        3.3498500710
 H         -1.6516989978        2.6477943755        6.5228222582
 H         -0.6025068577        3.9972387189        6.9676339018
 H         -2.8723575998        5.1995466095        3.7231586848
 H         -3.9327728598        3.8513934883        3.3017648088
 H         -5.9713860540        2.8325446733       -0.6323533299
 H         -4.6471580306        3.9342405268       -0.2441132539
 H         -4.0659101841        2.6566862010       -4.1173484248
 H         -5.3940196114        1.5676125860       -4.5322118869
 H          5.2604791592        0.5551396585       -3.6066939549
 H          5.8356418438        0.4023291366       -1.9448947230
 H          4.5115527489       -3.3205780500       -3.1498146093
 H          3.9520282899       -3.1658464464       -4.8173347825
 H          1.1704577324        0.4495252014        4.5655691981
 H         -0.6353401368       -0.8776237254       -0.1496650356
 H          1.0013570191        0.6199651860        1.1828838111
 H         -1.2508980798       -0.2940806466       -3.4651337592
 H          4.4726226351       -0.7265328509        2.1093566321
 H         -1.5855146315       -2.8793750527        3.5002034206
 H          3.3446950146        3.4022568105        2.3773181309
 H         -4.1366127395        0.2502631997        2.0132814073
 H         -0.9460110980        4.2770289604        0.1623636811
 H         -3.4785020995       -3.2002658271       -1.2588323963
 H          1.8945460692        2.5049953770       -2.5422632027
 H          0.6703418452       -3.8670659890       -2.1134086927
 H          1.8148092189       -1.8791798863        4.4942045255
 H          0.7941319661       -2.6195894732        0.5971154753
 H          1.3378190067        4.0420162433        3.5066803723
 H         -1.8870158693        0.9784093934       -0.9037077304
 H         -0.7176074662        1.4226115261        2.5905859420
 H         -4.4946654170       -1.1060081150       -1.7367272948
 H          2.5771491218       -0.4078401794       -0.2579244991
 H          1.0493357546       -0.6580402903       -4.0261311039
 H          2.2154905474       -4.0956101513        4.2841549580
 H          2.1963244100       -4.2602939624        1.2304362337
 H         -0.5223826987        4.7355112821        4.5815435498
 H         -2.2073625872        2.2330942287        4.1055462352
 H         -3.1358115688        2.6717905743       -1.7826684882
 H         -5.5485750166        0.8352432126       -2.1458689909
 H          4.1603728898       -1.3954580701       -1.5150393356
 H          3.2640901334       -0.8027995413       -4.3773173648
 C         -1.7511768315        0.9522707906       -7.1090973301
 C         -0.5235823390        1.4939048804       -6.3755764152
 O         -1.3605999475        0.1864238418       -8.2367829034
 C         -0.5061350679       -0.8740828569       -7.8471416355
 C          0.7233294444       -0.3322740114       -7.1167998244
 O          0.3341038594        0.4318897170       -5.9872784168
 H         -2.3654153817        1.7674942465       -7.4911505532
 H          0.0242647005        2.1850403816       -7.0313673182
 H         -1.0516554392       -1.5636371892       -7.1857365403
 H          1.3105757552        0.2974438844       -7.8001153186
 H         -0.8130143113        2.0060780104       -5.4584706589
 H         -0.2184182303       -1.3884355273       -8.7641354081
 H          1.3403651642       -1.1484457114       -6.7398100013
 H         -2.3426650998        0.3249051220       -6.4270144111