142
-211.12849924
 C          3.0889949032       -6.7866709119        3.4713894316
 C          2.3477438721       -7.1578041475        2.1909521795
 C         -3.0507756739        4.1103302728        6.2126220348
 C         -4.0011954428        3.9067992203        5.0373108057
 C         -3.4654876701        4.6718086895       -3.4855494625
 C         -3.6904983128        3.9290024866       -4.7988301042
 C          7.2079554815       -0.0497324121       -2.9645871964
 C          6.7946539414       -0.6683275915       -4.2969813546
 C          3.5302259560       -5.3281041018        3.4268173717
 C          1.1468452831       -6.2416996931        1.9873562528
 C         -1.8628277016        3.1613143652        6.1053313331
 C         -3.2673171485        4.1229648736        3.7190454536
 C         -3.5751178545        3.7130134931       -2.3051738785
 C         -2.6964407848        2.7816447734       -4.9427920465
 C          6.1732325750        0.9678560955       -2.4976763527
 C          5.4208091494       -1.3192760591       -4.1717238931
 C          1.6528455413        0.2879042465        3.9107628527
 C         -0.7101245935       -1.0151834762        0.0378224739
 C          1.1664262592        1.8967824761        0.3472340167
 C          0.2584461518       -1.1702053443       -3.5276550085
 C          3.6838140411       -0.3601541923        2.7914920468
 C         -1.8549347107       -2.2344398909        1.7689102167
 C          3.1358462042        1.9800415731        3.0514447823
 C         -2.8742303604       -0.2734669883        0.7866806674
 C          0.0590017564        4.0001448430       -0.0375300302
 C         -1.4819060818       -2.6391684633       -2.7390907341
 C          1.8771200066        3.3050538263       -1.4720646124
 C          0.8134705701       -3.3904791006       -2.7744169746
 C          2.1382193121       -2.1103500502        3.6298086750
 C          0.3836384471       -2.9909081026        1.0190048465
 C          1.0002651501        2.6682848812        4.0797439675
 C         -1.7091369841        0.9521055057       -1.0324429445
 C         -0.6827387009        2.5568282584        1.8336582270
 C         -2.0950864986       -0.3712757153       -3.4300218361
 C          3.0409182510        1.1576001226       -1.0770686012
 C          2.6362558432       -1.8733788627       -3.4672486407
 C          2.5032694049       -0.7114602896        3.4517593569
 C         -0.7440169190       -2.0746203961        0.9389486131
 C          1.9539566236        1.6335064753        3.7049770520
 C         -1.7712028734       -0.1180391226       -0.0508440406
 C          0.1878883655        2.8234303054        0.6982597709
 C         -1.0871582181       -1.4074735065       -3.2663645181
 C          2.0221621725        2.1353730628       -0.7239166483
 C          1.2143511654       -2.1508057765       -3.2741667046
 C          3.9803968391        0.9757736329        2.6111942863
 C         -2.8932442612       -1.3281094083        1.6796137114
 C          0.8963845036        4.2104339401       -1.1177210817
 C         -0.5259876119       -3.6083817046       -2.5088178930
 C          2.3329191521       -4.3989253640        3.2316203332
 C          1.5794067321       -4.7764425783        1.9289161102
 C         -1.1046898118        3.3705584995        4.7963564589
 C         -2.0782783357        3.1753781222        3.5889361338
 C         -2.5676986456        2.5756935928       -2.4367044731
 C         -2.8168098961        1.8062105450       -3.7747745961
 C          4.7853834277        0.3322652164       -2.3887590532
 C          4.3835973881       -0.2715527027       -3.7612003179
 Br         5.5924158541        1.4567483108        1.7035326020
 Br        -4.3968116663       -1.5268942005        2.8351097028
 Br         0.6757907645        5.7947995924       -2.1587557543
 Br        -1.0653146137       -5.2903837624       -1.7767723977
 N          2.7890000794       -3.0492637088        3.0907787069
 N          0.4232911300       -3.9423816882        1.8460370309
 N         -0.0937443636        2.3795716457        4.6461832403
 N         -2.7161198806        1.6461295415       -1.3613645572
 N         -1.3453842499        3.4722608202        2.4002017673
 N         -1.8209562010        0.7902362474       -3.8543824748
 N          3.8318718590        1.3344833670       -2.0413235259
 N          3.0184575650       -0.6875311524       -3.6600233330
 H          2.4316421394       -6.9410569044        4.3298401838
 H          3.9636702093       -7.4270623892        3.5970355379
 H          2.0079931996       -8.1933973241        2.2409977612
 H          3.0242387486       -7.0662113517        1.3381384412
 H         -2.6925465086        5.1423296184        6.2176212427
 H         -3.5742671432        3.9304327134        7.1529845257
 H         -4.4049116425        2.8922384785        5.0664387892
 H         -4.8370569637        4.6046892065        5.1069004070
 H         -2.4739415428        5.1287424652       -3.4916814370
 H         -4.2022300408        5.4690894761       -3.3766126765
 H         -3.5751488042        4.6155798004       -5.6388443241
 H         -4.7083095355        3.5323486583       -4.8238787530
 H          8.1770306967        0.4412162279       -3.0647127711
 H          7.3079892202       -0.8359849569       -2.2123095179
 H          7.5283315504       -1.4163333497       -4.6039743225
 H          6.7608443185        0.1064202762       -5.0655807621
 H          4.0365159083       -5.0539062702        4.3545638048
 H          4.2283774776       -5.1689358080        2.6031698815
 H          0.6276096190       -6.4899438537        1.0596255552
 H          0.4385970165       -6.3573504320        2.8090638883
 H         -2.2028822262        2.1250815022        6.1430794020
 H         -1.1715182903        3.3200278402        6.9356031828
 H         -2.8989819748        5.1479994415        3.6531593470
 H         -3.9389549859        3.9510262168        2.8758229489
 H         -4.5780206990        3.2854331142       -2.2544948493
 H         -3.3860200049        4.2382786470       -1.3673666485
 H         -1.6754813098        3.1651306090       -4.9696976373
 H         -2.8762639968        2.2363466714       -5.8714917470
 H          6.1133680483        1.7987722019       -3.2013735158
 H          6.4499954991        1.3692936987       -1.5208116190
 H          5.4694943244       -2.1109803434       -3.4200893266
 H          5.1192959304       -1.7653187741       -5.1227602671
 H          0.7322848751        0.0426685324        4.4172079411
 H          0.1439243028       -0.8894938368       -0.6128922364
 H          1.2613744869        0.9851521960        0.9206156100
 H          0.5695753154       -0.2138729497       -3.9145805960
 H          4.3374092800       -1.1412901047        2.4373910198
 H         -1.8753100968       -3.0605854785        2.4614798823
 H          3.3826142790        3.0174224154        2.8826451125
 H         -3.6837277083        0.4352150668        0.7272072398
 H         -0.6991030976        4.7131763627        0.2431531565
 H         -2.5195724253       -2.8124069495       -2.4976473179
 H          2.5321356182        3.4679840965       -2.3124377608
 H          1.5408095861       -4.1646828855       -2.5793444990
 H          1.2480317582       -2.2923794235        4.2478831566
 H          1.2040958746       -2.7926874748        0.3101554906
 H          1.2708152627        3.6987881052        3.8077285029
 H         -0.7214087588        1.1114259423       -1.4863043902
 H         -0.7186806213        1.5081715724        2.1650748619
 H         -3.1081791771       -0.6585384045       -3.1204153263
 H          3.0656782002        0.2514352820       -0.4484054095
 H          3.3018165000       -2.7426450677       -3.3968511983
 H          1.6187040303       -4.5028171781        4.0659859078
 H          2.2679302508       -4.6076287451        1.0815459057
 H         -0.7001317005        4.3954531585        4.7325978643
 H         -2.4076019642        2.1238267647        3.6160089173
 H         -1.5388981027        2.9673437814       -2.4864745581
 H         -3.8356335026        1.3834956329       -3.7218049459
 H          4.7991698108       -0.4907043387       -1.6473781841
 H          4.3779410790        0.5520694108       -4.4852124002
 C         -5.6112703547       -2.8696404678       -1.5807374173
 C         -6.5303946375       -2.7834408856       -2.8000699025
 O         -4.7244024717       -1.7610673944       -1.5497966496
 C         -5.4600977627       -0.5444458799       -1.5250190632
 C         -6.3784444750       -0.4563450190       -2.7444358562
 O         -7.2567727676       -1.5670741447       -2.7913676660
 H         -4.9911029437       -3.7656080399       -1.6214885265
 H         -5.9310731240       -2.8478709605       -3.7206848596
 H         -6.0665896147       -0.5058210260       -0.6098556069
 H         -5.7742441546       -0.4294608252       -3.6643086247
 H         -7.2712212792       -3.5826193385       -2.7848657910
 H         -4.7225468186        0.2611713340       -1.5206626546
 H         -7.0106431708        0.4300221025       -2.6915215915
 H         -6.2165883506       -2.8796227703       -0.6639694528