142
-211.12844013
 C          1.5900405185       -6.6908994357        2.5151685412
 C          0.9138463444       -6.7349960017        1.1486873038
 C         -2.9014098864        4.9884785445        5.7493339303
 C         -3.7039564246        4.9726154640        4.4522368429
 C         -2.9831337605        6.3353318612       -3.2695241128
 C         -3.3659620628        5.7663969295       -4.6321008906
 C          7.1363639390       -1.6878945857       -2.1365002268
 C          6.7593475567       -2.1536887231       -3.5391012670
 C          2.2688667492       -5.3427158145        2.7272816880
 C         -0.0976705086       -5.6025136841        1.0196441952
 C         -1.9056633609        3.8343103842        5.7749150704
 C         -2.7720072635        5.0454529650        3.2478113002
 C         -3.2034561716        5.2952816902       -2.1767363918
 C         -2.5647167824        4.5034410535       -4.9276175042
 C          6.3570606560       -0.4317065195       -1.7664296969
 C          5.2593959373       -2.4104309945       -3.6271851815
 C          1.3431997498        0.4244166511        3.8415744872
 C         -1.0886398631       -0.0149717794       -0.3365562921
 C          1.4636787803        1.8329682335        0.4555291302
 C         -0.0817848704        0.1938703133       -3.8538626040
 C          3.3577068593       -0.4867982711        2.8858312519
 C         -2.4350420529       -1.2107843926        1.2608074161
 C          3.1820845078        1.8855627170        3.3066987100
 C         -3.1613482163        0.9411841195        0.4310308067
 C          1.0581386432        4.1698064461        0.0385494560
 C         -1.9505324663       -1.2252347403       -3.3101690312
 C          2.8062024802        3.0067713723       -1.1612226881
 C          0.2988077960       -2.1052496687       -3.2450895663
 C          1.4404057933       -1.9880951035        3.3433130112
 C         -0.3045632263       -2.2063426997        0.4750951049
 C          1.0757119784        2.8690693215        4.1215640612
 C         -1.7791018000        2.1710419397       -1.2216968024
 C         -0.3241200148        2.9624260174        1.7078392457
 C         -2.3558380253        1.1640568280       -3.7568263544
 C          3.2397242202        0.6035308123       -0.7319647399
 C          2.2359602211       -0.6297915426       -3.7085112383
 C          2.0618888232       -0.6705259819        3.3758372226
 C         -1.2908197877       -1.1346257163        0.4645809915
 C          1.8876570561        1.7070309015        3.7930450007
 C         -2.0147860070        1.0248253103       -0.3579680464
 C          0.7395270130        2.9935936377        0.7160930420
 C         -1.4547457846        0.0238666915       -3.6815123550
 C          2.4980722166        1.8305431568       -0.4753505006
 C          0.7991704486       -0.8558353032       -3.6211233765
 C          3.8962463585        0.7835892565        2.8707762026
 C         -3.3457085135       -0.1719568890        1.2305259583
 C          2.0802304867        4.1513760456       -0.8926215962
 C         -1.0645696714       -2.2686875575       -3.1084789213
 C          1.2642631789       -4.1971645481        2.6087047290
 C          0.5710894404       -4.2414117496        1.2227063970
 C         -0.9538569371        3.9053388928        4.5836848900
 C         -1.7805604074        3.8864942869        3.2553994516
 C         -2.3933446816        4.0334142563       -2.4551616276
 C         -2.7912271035        3.4463406584       -3.8500449490
 C          4.8491108781       -0.6809350827       -1.8389482407
 C          4.4654529629       -1.1562341877       -3.2637397973
 Br         5.6644532577        1.0385229253        2.1932831564
 Br        -4.9017331416       -0.2679930313        2.3360214048
 Br         2.4916974584        5.7566602166       -1.8438109206
 Br        -1.7508860235       -3.9746846008       -2.5882708188
 N          1.9542456607       -2.9466102931        2.7018594760
 N         -0.4313152585       -3.2241401113        1.2089123079
 N         -0.1150645167        2.7559818524        4.5356819372
 N         -2.6707229716        3.0315389586       -1.4763837467
 N         -0.8540189060        4.0113120018        2.1759695173
 N         -1.9417235366        2.3224752835       -4.0551109200
 N          4.1609281375        0.5458236668       -1.5913198918
 N          3.0673099203       -1.4630385809       -3.2515957931
 H          0.8432578638       -6.8489577755        3.2963668837
 H          2.3321871079       -7.4872376138        2.5921367793
 H          0.4051362297       -7.6905651744        1.0125468846
 H          1.6683965765       -6.6401867506        0.3648008151
 H         -2.3623437545        5.9349826030        5.8329774535
 H         -3.5732186945        4.9064020333        6.6052427273
 H         -4.2928259690        4.0540886090        4.3998682823
 H         -4.3942090171        5.8173673078        4.4296846155
 H         -1.9318287755        6.6317412884       -3.2812018792
 H         -3.5810507884        7.2221676263       -3.0536539768
 H         -3.1773089978        6.5059254308       -5.4119161341
 H         -4.4325222520        5.5301800888       -4.6418762522
 H          8.2056272217       -1.4769407105       -2.0856459630
 H          6.9143464458       -2.4788180496       -1.4167196846
 H          7.2996829458       -3.0684739243       -3.7883679453
 H          7.0403682094       -1.3874261172       -4.2649798015
 H          2.7322102297       -5.2993190600        3.7150738031
 H          3.0514260174       -5.1925855553        1.9816037495
 H         -0.5636578586       -5.6153812129        0.0328078151
 H         -0.8855422894       -5.7118174766        1.7662423910
 H         -2.4320759933        2.8791448662        5.7399088336
 H         -1.3151931348        3.8609026627        6.6930785396
 H         -2.2112429577        5.9815004380        3.2563866075
 H         -3.3455360313        5.0036037007        2.3201001355
 H         -4.2585866789        5.0237417697       -2.1165635695
 H         -2.9012733709        5.6931587067       -1.2063566666
 H         -1.4985666435        4.7323372144       -4.9682235666
 H         -2.8568658726        4.0839699652       -5.8925323117
 H          6.6036022082        0.3819646760       -2.4502252156
 H          6.6092176243       -0.1086161274       -0.7546583807
 H          4.9722386582       -3.2100201143       -2.9421950568
 H          4.9830471131       -2.7174093898       -4.6380125643
 H          0.3389985850        0.3088122025        4.2190209011
 H         -0.2065239068        0.0477252942       -0.9578499658
 H          1.2222014978        0.9259507109        0.9912840660
 H          0.2808764549        1.1691007001       -4.1395212081
 H          3.9072350778       -1.3423099180        2.5271815221
 H         -2.5832352078       -2.0810845827        1.8795471252
 H          3.6161833547        2.8729990834        3.2610079527
 H         -3.8748324001        1.7489984954        0.4046825182
 H          0.4962669340        5.0650137793        0.2511510855
 H         -3.0110657336       -1.3718739686       -3.1710685486
 H          3.6073773966        2.9956247088       -1.8824964036
 H          0.9896641002       -2.9136262877       -3.0670496296
 H          0.4859858824       -2.0804436074        3.8797336292
 H          0.5553817655       -2.0654789448       -0.1989574595
 H          1.5407897502        3.8481886938        3.9347397696
 H         -0.7675623519        2.2320779822       -1.6497263554
 H         -0.6298984176        1.9567765348        2.0322172308
 H         -3.4030569016        0.9678755754       -3.4837455428
 H          2.9411910056       -0.2659333522       -0.1246758393
 H          2.5431969898        0.3232239319       -4.1608054353
 H          0.4758521996       -4.2874332134        3.3750207468
 H          1.3417659865       -4.0697750950        0.4504751776
 H         -0.3739905172        4.8446222595        4.5981262398
 H         -2.3082274592        2.9190355871        3.2270655490
 H         -1.3161942090        4.2624883032       -2.5062029497
 H         -3.8560109575        3.1602118674       -3.7960353208
 H          4.5527810505       -1.4693264629       -1.1244450284
 H          4.6965284911       -0.3319686492       -3.9595914401
 C         -4.5740180700       -7.1724623670        0.2104164864
 C         -4.0153825222       -7.9957916071       -0.9515422320
 O         -5.9914867599       -7.1500284497        0.1708252728
 C         -6.5134464634       -8.4677591620        0.1950620464
 C         -5.9556189608       -9.2889525911       -0.9691771433
 O         -4.5388926558       -9.3137539894       -0.9265560329
 H         -4.2501879887       -6.1343607283        0.1405547482
 H         -4.2771874055       -7.5122022482       -1.9033388985
 H         -6.2470923096       -8.9512411341        1.1462460154
 H         -6.2870002625       -8.8492564693       -1.9210126883
 H         -2.9331489130       -8.0954997735       -0.8743814038
 H         -7.5963901125       -8.3684819520        0.1190815591
 H         -6.2813219318      -10.3273375051       -0.9055509140
 H         -4.2410689544       -7.6078241626        1.1636558966