142
-211.12820108
 C          4.3798802721       -6.0673676437        3.6076803566
 C          3.3775323938       -6.6129117930        2.5957467861
 C         -2.3868055112        4.5418436447        6.5297015885
 C         -3.4983125219        4.0069029299        5.6324898038
 C         -5.5550985613        3.6812451359       -1.9110175634
 C         -6.1049606637        2.7612786957       -2.9963828949
 C          6.4242039107       -0.9541232526       -3.4184200766
 C          5.8364797262       -1.8379961529       -4.5139381017
 C          4.6266027931       -4.5834288901        3.3617351468
 C          2.0694201026       -5.8348856106        2.6714811726
 C         -1.1175142328        3.7157094514        6.3552565752
 C         -3.0551827788        4.0131222116        4.1737426162
 C         -5.1172401239        2.8700400954       -0.6966995042
 C         -5.0611059713        1.7234457666       -3.3934436196
 C          5.4113893375        0.0975218798       -2.9814920686
 C          4.5511197099       -2.4998280742       -4.0302931571
 C          2.2955230681        0.8609331567        3.8868889360
 C         -0.9964163686       -1.1732269611        0.9553826149
 C          0.9358989647        1.4294035449        0.5064563608
 C         -1.1705182729       -1.4893043120       -2.7379488420
 C          4.1222997344        0.2820554091        2.4277323821
 C         -1.3711538924       -2.2729060411        3.0637307779
 C          3.3382884291        2.5646279086        2.5405731047
 C         -2.9543286863       -0.6360837023        2.2511943700
 C         -0.3642575618        3.3733826906       -0.0682962124
 C         -2.2490016552       -3.1678428657       -1.3889677416
 C          1.2210745545        2.4607509254       -1.6497740813
 C          0.0775252980       -3.4105821817       -1.9944086334
 C          3.0000408557       -1.4968402858        3.7384909776
 C          0.6437781292       -2.8404365650        1.7371234306
 C          1.3656139430        3.1545531319        3.8940549094
 C         -2.5699337088        0.5009019615        0.0812101241
 C         -0.6604410044        2.3128257173        2.1543408562
 C         -3.4992524408       -1.1295102045       -1.9813595972
 C          2.5778538408        0.4704540740       -1.0621673693
 C          1.2209940099       -1.6435932966       -3.3051036623
 C          3.1536043875       -0.0978309938        3.3606269287
 C         -0.5909522048       -2.0898857069        1.9205595393
 C          2.3679432595        2.1890482366        3.4686651509
 C         -2.1712596053       -0.4423706796        1.1138715130
 C         -0.0284216359        2.3751588803        0.8454193585
 C         -2.3048619523       -1.9553425341       -2.0752411602
 C          1.5705382840        1.4690587842       -0.7314468129
 C          0.0234358702       -2.1994170204       -2.6891223490
 C          4.2035041756        1.6053981754        2.0448407697
 C         -2.5355006964       -1.5430192443        3.2071605619
 C          0.2584356862        3.3891688766       -1.3027845786
 C         -1.0606542230       -3.8763088833       -1.3680836749
 C          3.3231720827       -3.7895836699        3.4423273527
 C          2.3010205243       -4.3439024265        2.4169783776
 C         -0.6506123137        3.7291574950        4.9019286509
 C         -1.7914987799        3.1803946993        3.9831458243
 C         -4.0629119000        1.8373613025       -1.0823379999
 C         -4.6327741240        0.8894933748       -2.1889127567
 C          4.1233276911       -0.5592749039       -2.4808056623
 C          3.5260594655       -1.4523682868       -3.5983913363
 Br         5.5233550809        2.1259858637        0.7649851597
 Br        -3.5947241503       -1.7831589559        4.7793350994
 Br        -0.2420987604        4.7264259571       -2.5725679359
 Br        -0.9868867631       -5.5270493160       -0.4086437516
 N          3.5757352605       -2.4224978695        3.1013242159
 N          1.0716742935       -3.6434370775        2.6102942345
 N          0.4539870391        2.8500677076        4.7175246777
 N         -3.7186058719        1.0296120895        0.0437870148
 N         -1.3323062732        3.2711108962        2.6338046947
 N         -3.5693097169        0.0076475350       -2.5336433104
 N          3.1647486054        0.4553454844       -2.1784081990
 N          2.3709896392       -2.1021109845       -3.0568814337
 H          3.9905748969       -6.2086818594        4.6183871688
 H          5.3234842470       -6.6101816118        3.5309535685
 H          3.1814389646       -7.6679614634        2.7929278845
 H          3.7926052059       -6.5296862615        1.5889224954
 H         -2.1802691844        5.5833883366        6.2728397710
 H         -2.7006821309        4.5080601458        7.5741962825
 H         -3.7476679927        2.9862591014        5.9313125992
 H         -4.3948142474        4.6190144281        5.7428025370
 H         -4.7003508816        4.2365049796       -2.3037290720
 H         -6.3169119257        4.4024927079       -1.6111083325
 H         -6.3871063294        3.3457840757       -3.8734995248
 H         -6.9992386592        2.2543670010       -2.6266541979
 H          7.3259160285       -0.4577552371       -3.7803271122
 H          6.7005872955       -1.5707328902       -2.5603461795
 H          6.5556671080       -2.6070311243       -4.8007686600
 H          5.6225547052       -1.2304489333       -5.3960929797
 H          5.3243332144       -4.1844240422        4.1008834021
 H          5.0612570711       -4.4319173695        2.3722318482
 H          1.3580526266       -6.2080790268        1.9322401924
 H          1.6185508812       -5.9478852527        3.6586155818
 H         -1.2958171467        2.6806239140        6.6511053844
 H         -0.3154535203        4.1122860588        6.9812100593
 H         -2.8511807265        5.0325748958        3.8423515722
 H         -3.8396935942        3.6010618584        3.5365162701
 H         -5.9701002675        2.3478525213       -0.2600540039
 H         -4.6962975021        3.5258916098        0.0672981505
 H         -4.1774015998        2.2156321918       -3.8024621170
 H         -5.4613195661        1.0524288844       -4.1561507641
 H          5.1607816639        0.7525923199       -3.8172471082
 H          5.8226707355        0.7154058914       -2.1810611628
 H          4.7583290861       -3.1510330911       -3.1794414551
 H          4.1140385956       -3.1103198431       -4.8231279130
 H          1.5361803445        0.5911303703        4.6044326358
 H         -0.3979097161       -1.0290869952        0.0669857439
 H          1.1989924980        0.6613200082        1.2197986568
 H         -1.2336198155       -0.5471615337       -3.2597373747
 H          4.7838207371       -0.4684649993        2.0256586750
 H         -1.0481080333       -2.9837666081        3.8070616107
 H          3.4056602177        3.5888781687        2.2059895463
 H         -3.8645669259       -0.0690796465        2.3624238797
 H         -1.1081198848        4.1042991863        0.2047857593
 H         -3.1187465416       -3.5414917890       -0.8698361230
 H          1.7124152510        2.4799153307       -2.6091411921
 H          1.0084584535       -3.9534605322       -1.9598806166
 H          2.3283333892       -1.6922790755        4.5857912102
 H          1.1736855975       -2.6582311964        0.7886792411
 H          1.4175886364        4.1437614654        3.4158570810
 H         -1.7996987745        0.7199085381       -0.6727405715
 H         -0.5046062599        1.3726940877        2.7037628420
 H         -4.3098809625       -1.5268240281       -1.3532082154
 H          2.7906569300       -0.2669901755       -0.2717989246
 H          1.0606237149       -0.7795569087       -3.9646771020
 H          2.8696526830       -3.8836081718        4.4436075055
 H          2.7112085546       -4.1830257684        1.4042517006
 H         -0.4252491622        4.7577376476        4.5702239454
 H         -1.9621768854        2.1338169308        4.2843697247
 H         -3.1745557212        2.3263152497       -1.5145668087
 H         -5.4939224359        0.3535587314       -1.7534835514
 H          4.3320328221       -1.1999644661       -1.6057241951
 H          3.2635833279       -0.7919621279       -4.4422018744
 C         -2.6153285652        0.6125127181       -7.5532742996
 C         -2.8813351692        2.1098462516       -7.7211699973
 O         -3.5254715075       -0.1453327312       -8.3331361000
 C         -3.4432887880        0.2262360890       -9.6991905363
 C         -3.7047130233        1.7245347967       -9.8669373674
 O         -2.7931158006        2.4793716819       -9.0870307912
 H         -2.7673208444        0.3002787872       -6.5202290676
 H         -3.8845477472        2.3498269791       -7.3410406425
 H         -2.4435263268       -0.0180970393      -10.0865853857
 H         -4.7337786826        1.9554555019       -9.5555189260
 H         -2.1325848971        2.7021154078       -7.1950502265
 H         -4.1979228877       -0.3623520036      -10.2210921022
 H         -3.5511647080        2.0333903088      -10.9009598339
 H         -1.5860892626        0.3847838736       -7.8669880164