142
-211.13306566
 C          3.5343383808       -6.7108560662        2.7235590420
 C          3.0095870274       -7.0552251684        1.3334406641
 C         -5.2512156824        2.5342695746        4.9953649713
 C         -5.8934847692        2.1637406339        3.6623799394
 C         -5.1563556248        3.3849846732       -4.1046486688
 C         -5.1809255237        2.6621372278       -5.4476845741
 C          7.1281603675       -0.1264629271       -1.8457015645
 C          7.0704156164       -0.7554542050       -3.2340403725
 C          3.6429638836       -5.1995296511        2.8900394175
 C          1.6574978692       -6.3932928703        1.0972345761
 C         -3.9027383977        1.8397721325        5.1485672714
 C         -4.9702962578        2.5312112187        2.5061448171
 C         -5.0524198952        2.3821707470       -2.9608671927
 C         -3.9379839955        1.7942818095       -5.6095062112
 C          5.9053048811        0.7513442527       -1.6081640058
 C          5.7903736756       -1.5671846020       -3.3958449405
 C          0.5265934935       -0.1840530532        3.6149364567
 C         -1.2414104876       -1.6437276084       -0.6535747152
 C          0.3604933321        1.0624778070        0.1651397881
 C         -0.1030430253       -1.1988075978       -4.1117566108
 C          2.8087888257       -0.2846291077        2.8496842023
 C         -2.1571001787       -3.1980483915        0.9399762643
 C          1.7113902939        1.8536003217        3.1080368083
 C         -3.5737034501       -1.5168471866       -0.0674012710
 C         -0.8715111992        3.0428817171       -0.4325602845
 C         -1.3365034587       -3.2020647049       -3.5948190155
 C          1.2711810785        2.5883970515       -1.4580744929
 C          1.0653803282       -3.1576801111       -3.3377050403
 C          1.5717981824       -2.3897669885        3.2738765184
 C          0.2428625901       -3.3453502101        0.3351866990
 C         -0.6641704591        1.9885018160        3.7172300548
 C         -2.6329086199        0.0803265927       -1.7164818287
 C         -1.8112943505        1.4705415277        1.2399322329
 C         -2.5752645629       -1.1650177510       -4.2157041554
 C          2.5542448513        0.5585774287       -0.8377965353
 C          2.3347693021       -1.0740491633       -3.7753270388
 C          1.6435809602       -0.9347540128        3.2650982191
 C         -1.0684896024       -2.7249936866        0.2051011505
 C          0.5465016849        1.2063201365        3.5192404831
 C         -2.4859052039       -1.0347690575       -0.7942770278
 C         -0.7678043508        1.8658095358        0.3071126883
 C         -1.3197750457       -1.8721118014       -4.0130542376
 C          1.3846408904        1.4166608077       -0.7078119563
 C          1.0867753114       -1.8259553728       -3.7605402046
 C          2.8230498563        1.0941784840        2.7914999803
 C         -3.3861663025       -2.5844909914        0.7911183037
 C          0.1461046041        3.3760325071       -1.3069720432
 C         -0.1421992004       -3.8226285634       -3.2740534421
 C          2.2920637969       -4.5229454341        2.6605006256
 C          1.7574898555       -4.8739696218        1.2483327634
 C         -2.9600751381        2.2115316149        4.0068082757
 C         -3.6215781256        1.8316886172        2.6408870386
 C         -3.8040459230        1.5179639358       -3.1057067901
 C         -3.8334915158        0.7721647087       -4.4806459662
 C          4.6139395805       -0.0560011776       -1.7559048061
 C          4.5555441967       -0.6967261775       -3.1662807813
 Br         4.4125372508        1.9833260988        2.2207479922
 Br        -4.8718163048       -3.2230802483        1.8084021897
 Br        -0.0156306487        4.9704619189       -2.3456946788
 Br        -0.1751397551       -5.6411651919       -2.6896671531
 N          2.4540862235       -3.1016323396        2.7177368631
 N          0.4529046129       -4.3062131095        1.1245498652
 N         -1.7543713993        1.4568044469        4.0816094669
 N         -3.7600167102        0.5233873334       -2.0817864311
 N         -2.7331010918        2.2551956508        1.6066799093
 N         -2.6073104209        0.0528219016       -4.5594015961
 N          3.4959150170        0.8245491213       -1.6334976432
 N          3.3800218624       -1.5120779968       -3.2187099986
 H          2.8547520973       -7.1118787236        3.4788008186
 H          4.5148409623       -7.1646252000        2.8773183494
 H          2.9052187995       -8.1362121469        1.2285510014
 H          3.7199704647       -6.7104094071        0.5788628854
 H         -5.1098082498        3.6164453870        5.0435329824
 H         -5.9048344786        2.2424843079        5.8189624352
 H         -6.0923743286        1.0899051527        3.6402551593
 H         -6.8450889071        2.6852997047        3.5481258993
 H         -4.3001615876        4.0625209683       -4.0716988732
 H         -6.0626308368        3.9806925053       -3.9846338340
 H         -5.2247321687        3.3877013206       -6.2614753351
 H         -6.0725975609        2.0337922133       -5.5073251791
 H          8.0307908542        0.4780821324       -1.7447966949
 H          7.1633800926       -0.9133792034       -1.0891283912
 H          7.9339317997       -1.4048251265       -3.3875944521
 H          7.1005468830        0.0307744577       -3.9916413949
 H          3.9918177587       -4.9498571301        3.8942089951
 H          4.3582530467       -4.7911126957        2.1740646493
 H          1.2889384252       -6.6210755447        0.0952816435
 H          0.9246477894       -6.7619583188        1.8165815640
 H         -4.0330221351        0.7563731062        5.1488979033
 H         -3.4330647716        2.1231502978        6.0927515065
 H         -4.8001002106        3.6087931020        2.4828211290
 H         -5.4176073997        2.2391422642        1.5542896077
 H         -5.9263244533        1.7288990236       -2.9465592039
 H         -5.0038001875        2.9020284437       -2.0023711724
 H         -3.0396510069        2.4136409717       -5.5990853299
 H         -3.9680647601        1.2591377041       -6.5608535632
 H          5.8818520883        1.5707447270       -2.3281850047
 H          5.9333869434        1.1841905993       -0.6064018242
 H          5.7706935370       -2.3886156827       -2.6775863262
 H          5.7336957864       -1.9953663327       -4.3987592531
 H         -0.3857465030       -0.6641463936        3.9337483331
 H         -0.4027993696       -1.2751067358       -1.2271425250
 H          0.4429521784        0.1564230136        0.7485873764
 H         -0.1126983771       -0.1695798048       -4.4355336701
 H          3.6700525821       -0.8753683958        2.5812051671
 H         -2.0139962318       -4.0350561616        1.6042174918
 H          1.7285828757        2.9303983267        3.0292160340
 H         -4.5345953181       -1.0426336363       -0.1865791729
 H         -1.7456940792        3.6618396617       -0.3109320444
 H         -2.2711527860       -3.7360832143       -3.5120405616
 H          2.0668757453        2.8538517303       -2.1354561446
 H          1.9931714213       -3.6360532571       -3.0677598106
 H          0.6863354151       -2.8213807959        3.7609219961
 H          1.0336119840       -2.9194467606       -0.3029311859
 H         -0.5790578995        3.0574695074        3.4778395784
 H         -1.6885583749        0.5070280858       -2.0857027534
 H         -1.7376695078        0.4379622989        1.6121341064
 H         -3.4892115064       -1.7365284976       -3.9967853177
 H          2.5589101513       -0.3350095883       -0.1932117281
 H          2.2951416165       -0.0922269431       -4.2669908115
 H          1.5472432013       -4.8784452755        3.3925900531
 H          2.4590409005       -4.4564327087        0.5044105239
 H         -2.7698717693        3.2988693590        3.9892583212
 H         -3.7463928692        0.7363708863        2.6457780856
 H         -2.8940180832        2.1401364970       -3.1047733937
 H         -4.7104518990        0.1016883581       -4.4737186774
 H          4.5790371978       -0.8694108644       -1.0096047757
 H          4.5147895975        0.1256526185       -3.9004572406
 C          2.7953988279        6.8386484822        2.4774599143
 C          1.6737816551        5.9523421885        1.9353797291
 O          2.3325755340        7.6183282597        3.5667170681
 C          1.8202685456        6.7864855616        4.5919039638
 C          0.6937977454        5.9036595832        4.0536203273
 O          1.1516011325        5.1205051649        2.9614812215
 H          3.1319716145        7.5426570064        1.7167865983
 H          0.8676180972        6.5798327098        1.5309782312
 H          2.6260679831        6.1526214538        4.9904017911
 H         -0.1444145994        6.5333211212        3.7233832506
 H          2.0513971385        5.2852877271        1.1607252985
 H          1.4513326082        7.4522400346        5.3720699177
 H          0.3544799392        5.2012493169        4.8159700984
 H          3.6369211686        6.2105813830        2.8038545354