142
-211.12804945
 C          1.4310715548       -6.7076100250        2.5349268567
 C          0.7436316139       -6.7344685369        1.1736372821
 C         -2.8162871813        5.0508783315        5.7439067193
 C         -3.6124193334        5.0552725726        4.4428212413
 C         -2.9291141439        6.3918656498       -3.2692618559
 C         -3.3052515985        5.8167201876       -4.6310518658
 C          7.1898947600       -1.6855969865       -2.1513913440
 C          6.8046122552       -2.1400740196       -3.5554520999
 C          2.1456466978       -5.3771819395        2.7421693466
 C         -0.2388163418       -5.5759594467        1.0517606876
 C         -1.8431095072        3.8776745406        5.7693488996
 C         -2.6731519757        5.1157538800        3.2434526963
 C         -3.1550235299        5.3570361536       -2.1726902203
 C         -2.5020493070        4.5527726108       -4.9165407999
 C          6.4187092242       -0.4278942499       -1.7697472573
 C          5.3030772774       -2.3890929949       -3.6383048425
 C          1.3483675555        0.4127737347        3.8514097292
 C         -1.0942127412        0.0355993105       -0.3030371677
 C          1.5302170607        1.8596765360        0.4533747610
 C         -0.0271934813        0.2433843890       -3.8314095749
 C          3.3469036504       -0.5404515336        2.9033981597
 C         -2.4643541833       -1.1357671232        1.2923462416
 C          3.2183546279        1.8356565667        3.3218346177
 C         -3.1530981365        1.0266366957        0.4582877661
 C          1.1550648367        4.2046555668        0.0525851208
 C         -1.9005830063       -1.1733296040       -3.2971508879
 C          2.8968396492        3.0307877808       -1.1452445697
 C          0.3464329225       -2.0593164150       -3.2319575037
 C          1.3974063287       -2.0015479873        3.3593380992
 C         -0.3547356101       -2.1729332258        0.5077236400
 C          1.1289596731        2.8619847667        4.1295563962
 C         -1.7499579217        2.2308601958       -1.1944957938
 C         -0.2502673592        3.0026339990        1.7053268106
 C         -2.3004519912        1.2173309082       -3.7397332933
 C          3.3018884407        0.6205730958       -0.7321221781
 C          2.2882535938       -0.5895655206       -3.6924168141
 C          2.0462135725       -0.6972457714        3.3897383013
 C         -1.3177419504       -1.0801949208        0.4978509051
 C          1.9187090335        1.6840276898        3.8033992810
 C         -2.0034387013        1.0901915454       -0.3281506182
 C          0.8187312429        3.0269948444        0.7190700140
 C         -1.4009515929        0.0759939926       -3.6626138933
 C          2.5706433782        1.8528076106       -0.4707352989
 C          0.8506793758       -0.8098682692       -3.6027112259
 C          3.9112283286        0.7188095003        2.8892465811
 C         -3.3571613296       -0.0818290421        1.2592441643
 C          2.1826152267        4.1816570014       -0.8723814828
 C         -1.0175369532       -2.2196023733       -3.0974293763
 C          1.1697184679       -4.2065975735        2.6302304876
 C          0.4675962008       -4.2330586289        1.2481379778
 C         -0.8831254115        3.9364356359        4.5839835553
 C         -1.7019590132        3.9396617557        3.2508115309
 C         -2.3454183132        4.0925125385       -2.4407993332
 C         -2.7344493290        3.5002494978       -3.8356521152
 C          4.9091030136       -0.6673382542       -1.8388503185
 C          4.5171190197       -1.1328507809       -3.2649012096
 Br         5.6871665300        0.9369254172        2.2188996841
 Br        -4.9173506119       -0.1514510657        2.3604671113
 Br         2.6185569315        5.7894068345       -1.8086975482
 Br        -1.7088200702       -3.9249936031       -2.5837225016
 N          1.8899187009       -2.9728777259        2.7203650157
 N         -0.5074423931       -3.1897874793        1.2378814132
 N         -0.0665391592        2.7712598376        4.5354831321
 N         -2.6341758999        3.0954905588       -1.4602399932
 N         -0.7671080191        4.0560708319        2.1777857598
 N         -1.8833078293        2.3760592625       -4.0320844272
 N          4.2303102602        0.5628869188       -1.5836829423
 N          3.1174621627       -1.4321909627       -3.2488386161
 H          0.6862164165       -6.8469888639        3.3215328375
 H          2.1531110135       -7.5227221412        2.6063874130
 H          0.2093676621       -7.6766647957        1.0422945822
 H          1.4941194154       -6.6595514162        0.3837101895
 H         -2.2595208583        5.9864883632        5.8338858939
 H         -3.4937216301        4.9783705317        6.5962220965
 H         -4.2181425795        4.1481803788        4.3837304047
 H         -4.2865770107        5.9129249782        4.4202318095
 H         -1.8777607696        6.6881872170       -3.2771645664
 H         -3.5280756030        7.2796676448       -3.0603901022
 H         -3.1129874788        6.5526765359       -5.4133671212
 H         -4.3716730951        5.5800642217       -4.6449768017
 H          8.2604284928       -1.4804135350       -2.1036392731
 H          6.9668875007       -2.4801058137       -1.4359106944
 H          7.3395298383       -3.0556437863       -3.8133548988
 H          7.0859548631       -1.3701918660       -4.2773881284
 H          2.6165085076       -5.3458314113        3.7268555348
 H          2.9267578369       -5.2471477195        1.9912147767
 H         -0.7138415201       -5.5775983366        0.0689383547
 H         -1.0226547470       -5.6635195353        1.8055772762
 H         -2.3876386149        2.9330282599        5.7262726150
 H         -1.2576661422        3.8881008661        6.6910344070
 H         -2.0957990127        6.0415885662        3.2583901558
 H         -3.2426164796        5.0877138158        2.3127236456
 H         -4.2107178178        5.0868154891       -2.1160385886
 H         -2.8566772383        5.7592712592       -1.2028827552
 H         -1.4357231942        4.7817068198       -4.9521531660
 H         -2.7887036806        4.1288684030       -5.8811712063
 H          6.6675784854        0.3893396372       -2.4484537129
 H          6.6757057849       -0.1136848221       -0.7563779400
 H          5.0150935320       -3.1907454062       -2.9561019346
 H          5.0207647095       -2.6895069004       -4.6494482307
 H          0.3408353059        0.3179567003        4.2257348597
 H         -0.2097303140        0.0833195227       -0.9223338659
 H          1.2746063394        0.9514179164        0.9804954523
 H          0.3385048819        1.2187319897       -4.1127626588
 H          3.8801797287       -1.4072842205        2.5473374553
 H         -2.6282389979       -2.0031606841        1.9111677437
 H          3.6729137342        2.8138932611        3.2771503340
 H         -3.8534497566        1.8457402666        0.4282676626
 H          0.6021631517        5.1045825704        0.2688898787
 H         -2.9618247104       -1.3181299850       -3.1615682707
 H          3.7025826500        3.0157159513       -1.8613197420
 H          1.0350980737       -2.8702006235       -3.0566314373
 H          0.4411804991       -2.0720949981        3.8959378826
 H          0.5089465442       -2.0507162896       -0.1651927792
 H          1.6151644016        3.8319769479        3.9491784022
 H         -0.7345494374        2.2825683498       -1.6142923424
 H         -0.5719075575        1.9992601743        2.0211279082
 H         -3.3499263958        1.0210952635       -3.4753262522
 H          2.9900106076       -0.2517189592       -0.1357539880
 H          2.5983225590        0.3664676216       -4.1363686911
 H          0.3835937985       -4.2781194396        3.4008492993
 H          1.2383534553       -4.0833345563        0.4715431141
 H         -0.2854328152        4.8643002136        4.6064987921
 H         -2.2455724909        2.9813621745        3.2130254433
 H         -1.2673371175        4.3185547684       -2.4843672378
 H         -3.7994601909        3.2137314616       -3.7871801278
 H          4.6093701147       -1.4573362073       -1.1276667207
 H          4.7499069180       -0.3059027021       -3.9569918576
 C         -6.7481032981       -9.2404069908       -1.1566572679
 C         -6.3591876139       -9.4212559673        0.3120654355
 O         -6.3582121141       -7.9588611920       -1.6207771842
 C         -4.9632148888       -7.7694935909       -1.4487838561
 C         -4.5713860732       -7.9532792338        0.0184149805
 O         -4.9648054086       -9.2335224680        0.4848469551
 H         -7.8294172873       -9.2952506978       -1.2834307984
 H         -6.9072500434       -8.6945598577        0.9291850972
 H         -4.4153795861       -8.4930550096       -2.0693727588
 H         -5.0534026471       -7.1756511644        0.6280376205
 H         -6.5751379641      -10.4346692175        0.6507116381
 H         -4.7465503807       -6.7555489679       -1.7843709722
 H         -3.4897614112       -7.9033136435        0.1387809856
 H         -6.2593521412      -10.0156525849       -1.7644867018