142
-211.13184172
 C          2.5184636306       -6.5537075368        3.3472607989
 C          1.5072707731       -6.8165068864        2.2360562523
 C         -2.1192855597        5.0991597118        6.3580568920
 C         -3.2180708835        4.8576370225        5.3280386391
 C         -4.7340305962        5.2512143627       -2.3390354626
 C         -5.3579218589        4.4749751758       -3.4943332051
 C          6.3078160455       -1.6095274280       -3.2344561764
 C          5.6352292112       -2.2639814875       -4.4366885807
 C          3.0985582077       -5.1503846345        3.2145531647
 C          0.3955810495       -5.7748743767        2.2722523793
 C         -1.0356278755        4.0333575220        6.2407591818
 C         -2.6346276341        4.8442668877        3.9195760275
 C         -4.5478152855        4.3448837078       -1.1273436817
 C         -4.4932444140        3.2729509617       -3.8569610619
 C          5.5086339924       -0.3963378335       -2.7748288810
 C          4.2059913666       -2.6661274095       -4.0909277547
 C          1.9401108095        0.6437912655        3.8976912555
 C         -1.4440854544       -0.4794080329        0.6465939155
 C          1.0828790442        1.6592161424        0.4407544316
 C         -1.2790321964       -0.5860753736       -3.0335948307
 C          3.7265536760       -0.2497409787        2.5520776648
 C         -2.2177399409       -1.5652288066        2.6508537459
 C          3.4340097061        2.1410275435        2.7451628991
 C         -3.3517174615        0.4031506059        1.8222291732
 C          0.3395977504        3.8939736806       -0.0639618121
 C         -2.7711690971       -2.1187726535       -1.9279273661
 C          1.8557280639        2.7512184898       -1.5606674856
 C         -0.4708394171       -2.7395209276       -2.3243270853
 C          2.1424835837       -1.8005556254        3.6620125641
 C         -0.2654938707       -2.4950268596        1.4395300489
 C          1.5140656852        3.0794908570        3.9731992184
 C         -2.5636809361        1.5175117562       -0.2489249957
 C         -0.4464652882        2.7809507082        2.0071161888
 C         -3.5738452310        0.1472742669       -2.4689666703
 C          2.6401581515        0.4576806454       -1.0482469810
 C          1.0855362672       -1.1560896648       -3.4215961295
 C          2.6207351319       -0.4529489048        3.3820293953
 C         -1.3230292931       -1.5034973381        1.5809448102
 C          2.3271893610        1.9422391902        3.5693158382
 C         -2.4520200250        0.4749625235        0.7594857041
 C          0.3262189880        2.7798382402        0.7744460559
 C         -2.5398454998       -0.8753242036       -2.5144567591
 C          1.8525736923        1.6377425864       -0.7184964294
 C         -0.2401911538       -1.5032314878       -2.9316216929
 C          4.1183441671        1.0407786970        2.2596015303
 C         -3.2115353959       -0.6107232691        2.7519660718
 C          1.0979435089        3.8549035197       -1.2193913549
 C         -1.7339728035       -3.0303508936       -1.8551100796
 C          1.9953135065       -4.0937637443        3.2555242479
 C          0.9628786494       -4.3609766228        2.1301030063
 C         -0.4284108474        4.0209345080        4.8403412065
 C         -1.5566247783        3.7736069158        3.7848273607
 C         -3.6750720457        3.1427223320       -1.4731739880
 C         -4.3131151239        2.3452877095       -2.6580576504
 C          4.0745903483       -0.7874087219       -2.4123784878
 C          3.3897191396       -1.4591229084       -3.6319105697
 Br         5.6271842017        1.3213800923        1.1217633086
 Br        -4.4249828232       -0.6858959474        4.2256843788
 Br         1.0890121713        5.3711834090       -2.3819627928
 Br        -2.0559859204       -4.7315491070       -1.0608890244
 N          2.5635578044       -2.8015629231        3.0178566006
 N         -0.0981105272       -3.4175238315        2.2828553354
 N          0.4830644824        2.9374136462        4.6935776536
 N         -3.5873380003        2.2521509294       -0.3601253231
 N         -0.9494807229        3.8345728434        2.4940115552
 N         -3.3950025250        1.2998947236       -2.9607781449
 N          3.3360666911        0.3931310658       -2.0982628120
 N          2.0910316758       -1.8918579618       -3.2104501026
 H          2.0273364882       -6.6538472994        4.3177092213
 H          3.3259196219       -7.2863787436        3.3008765041
 H          1.0732908448       -7.8109069213        2.3507515472
 H          2.0102414973       -6.7780080394        1.2673768024
 H         -1.6778736363        6.0852411127        6.1960240359
 H         -2.5398020931        5.0792513131        7.3647209093
 H         -3.7014086544        3.8990006627        5.5295196186
 H         -3.9761026730        5.6391552887        5.4000488801
 H         -3.7640394941        5.6469788487       -2.6483918880
 H         -5.3713308822        6.0943756750       -2.0679350653
 H         -5.4625368140        5.1225080301       -4.3663527521
 H         -6.3545146726        4.1319154740       -3.2070142187
 H          7.3202187910       -1.2969203399       -3.4945372389
 H          6.3772444392       -2.3302901568       -2.4168727107
 H          6.1964331743       -3.1473681003       -4.7456284371
 H          5.6229590620       -1.5622037432       -5.2735236533
 H          3.8034095095       -4.9500002877        4.0241257218
 H          3.6346753934       -5.0514098218        2.2691573354
 H         -0.3174399166       -5.9465679618        1.4636709514
 H         -0.1465730170       -5.8329044019        3.2172564404
 H         -1.4521931399        3.0457468427        6.4452383650
 H         -0.2381234958        4.2194994217        6.9630638255
 H         -2.1918936150        5.8128944419        3.6819247805
 H         -3.4168098095        4.6410539109        3.1859584662
 H         -5.5133368851        3.9809209951       -0.7723994408
 H         -4.0726892927        4.8932459947       -0.3119419522
 H         -3.5074989729        3.6022305925       -4.1895870617
 H         -4.9513409783        2.7050604864       -4.6694141113
 H          5.4694475248        0.3532845070       -3.5666194867
 H          5.9757932834        0.0615010128       -1.9009075021
 H          4.2060001177       -3.4061223788       -3.2888032078
 H          3.7148088271       -3.1099292281       -4.9591827325
 H          1.0799127365        0.5125277746        4.5356954804
 H         -0.7557509360       -0.4270985249       -0.1850252085
 H          1.0786771546        0.8014630789        1.0983508403
 H         -1.1243574244        0.3782412110       -3.4926076247
 H          4.2482081189       -1.1064951779        2.1565571026
 H         -2.1147987928       -2.3605125190        3.3713627006
 H          3.7454241674        3.1405329758        2.4813152472
 H         -4.1322063228        1.1430248253        1.8981711732
 H         -0.2461760269        4.7580975898        0.2054270155
 H         -3.7450933593       -2.3620499341       -1.5298053453
 H          2.4538435741        2.7249786095       -2.4572069943
 H          0.3410858423       -3.4435128064       -2.2414332574
 H          1.3721118220       -1.8814759162        4.4412661456
 H          0.3717081929       -2.3848153272        0.5474458297
 H          1.8181848406        4.0564329404        3.5696080620
 H         -1.6969370445        1.6142176515       -0.9191542200
 H         -0.5526606042        1.8005506920        2.4943259019
 H         -4.4948218993       -0.1236859253       -1.9315085974
 H          2.5899593832       -0.3664245366       -0.3188215709
 H          1.1572222368       -0.2065810143       -3.9698365211
 H          1.4532207244       -4.1312584024        4.2155244288
 H          1.4786948629       -4.2463251690        1.1603868475
 H          0.0372876991        4.9935338983        4.6039860079
 H         -1.9689260701        2.7725858657        3.9929732948
 H         -2.6776833406        3.4666422003       -1.8131286871
 H         -5.2866491336        1.9581824748       -2.3097581709
 H          4.0689751270       -1.5108235947       -1.5778943431
 H          3.3278335662       -0.7009576125       -4.4303436012
 C          0.1339789292       -4.3268051637       -5.3517603468
 C          0.4711725833       -4.1783781190       -6.8357138852
 O         -1.0903154751       -3.6726388087       -5.0511652042
 C         -2.1395539986       -4.1841818416       -5.8573019585
 C         -1.8001504020       -4.0326816278       -7.3408862685
 O         -0.5787804485       -4.6845467690       -7.6414052107
 H          0.8930202368       -3.8507618012       -4.7307381827
 H          0.6351311734       -3.1161066835       -7.0692487194
 H         -2.2990888389       -5.2460070553       -5.6208230345
 H         -1.7192014340       -2.9645543609       -7.5903947975
 H          1.3578249170       -4.7574740488       -7.0936255997
 H         -3.0296014310       -3.6086426662       -5.6017306085
 H         -2.5595762275       -4.5040897319       -7.9645785092
 H          0.0500776194       -5.3928388596       -5.0966470289