142
-211.12727512
 C         -1.0979949273       -6.6724085648        5.3845629347
 C          0.3858977485       -6.8261973355        5.7047444322
 C         -7.3989003271        1.7860880251       -1.2746674273
 C         -7.4379107150        0.9081496673       -2.5203329990
 C          4.1686006044        5.5408125830        4.3631863241
 C          2.8126470458        6.0781234695        3.9151491328
 C          3.9440533779        4.6187863266       -7.2586822354
 C          5.1213831366        4.2642134979       -6.3558361474
 C         -1.4755515069       -5.1986366908        5.2808875745
 C          1.2368267141       -6.1232828890        4.6524099520
 C         -6.3715641448        1.2451800056       -0.2891162783
 C         -6.0585074196        0.8476825375       -3.1638925932
 C          4.1578150845        4.0161090371        4.3963467094
 C          2.4350662334        5.5124042429        2.5501195201
 C          2.9542199606        3.4611185311       -7.3239793175
 C          4.6313330358        3.8998160036       -4.9589245551
 C         -2.3518676090       -0.6247728587        1.9521870595
 C          3.1173869541       -0.7807108000        2.8630608800
 C         -1.2613727233        0.5701053871       -4.2501816703
 C          2.0261028261        1.8641569480       -1.1177421965
 C         -1.1022200409       -0.2787987900        3.9821000287
 C          2.9563529744       -2.6869352053        1.3958211058
 C         -1.9561189406        1.6143288451        2.7465045753
 C          3.9349064515       -0.6256703119        0.6036553011
 C         -1.4976284955       -1.7907211711       -4.6651508475
 C          0.6505653632        0.3340698563        0.1356964739
 C          0.2941524351       -0.5521168908       -5.7086454669
 C          1.3251114755       -0.2167053667       -2.1136828379
 C         -1.4009160647       -2.5802743906        3.1264224955
 C          2.0702221983       -2.8477141175        3.7020729564
 C         -3.3211559328        1.3041944358        0.7259978536
 C          3.9952779465        1.3819374854        2.0093640745
 C         -3.1681011284       -0.6669733975       -3.2501572424
 C          1.4830803911        2.3404014791        1.2626048398
 C          0.6196699651        1.8475854605       -5.2092985744
 C          2.7275916772        1.2996126230       -3.4359244314
 C         -1.6337155555       -1.1454086446        3.0237926920
 C          2.7376268749       -2.1008064065        2.6454621105
 C         -2.5237540647        0.7509813500        1.8113588922
 C          3.7059157205       -0.0336692090        1.8453366347
 C         -1.9515474652       -0.6240540477       -4.0507245498
 C          1.3625981541        1.5322848178        0.0602471469
 C         -0.1393031516        0.6133910849       -5.0703432861
 C          2.0243154203        0.9884666392       -2.1988532405
 C         -1.2697808885        1.0814154389        3.8229536868
 C          3.5547964601       -1.9400517310        0.4025717769
 C         -0.3878588384       -1.7316524130       -5.4898701129
 C          0.6305377527       -0.5087247633       -0.9569674407
 C         -0.6349557905       -4.5033271846        4.2073177474
 C          0.8656763574       -4.6445325332        4.5609269050
 C         -4.9722603069        1.1795662540       -0.9181103172
 C         -5.0029184702        0.3109651519       -2.1854208019
 C          3.8030947195        3.4503287947        3.0251096096
 C          2.3975064792        3.9887570846        2.5962335305
 C          2.4420631314        3.0994079162       -5.9320228212
 C          3.6499393108        2.7324745901       -5.0102904406
 Br        -0.5261052871        2.2695747675        5.1239600203
 Br         3.8440807584       -2.7227457741       -1.3180476807
 Br         0.2188361517       -3.3343099948       -6.3471593381
 Br        -0.3556523260       -2.1311684832       -0.8507068087
 N         -0.9341019047       -3.1048886474        4.1752913412
 N          1.6111680782       -4.0090253986        3.5176848980
 N         -4.1033014071        0.5810570099        0.0504852813
 N          3.7066319969        2.0269000327        3.0601179367
 N         -3.7355300706        0.3867168700       -2.8488416771
 N          2.1229322307        3.4308710846        1.3121699252
 N          1.6129369356        1.9421419374       -5.9878337685
 N          3.1194789278        2.4706437178       -3.7107506680
 H         -1.3186584382       -7.1694929573        4.4373115968
 H         -1.6987693806       -7.1468927168        6.1625790943
 H          0.6514420712       -7.8841041093        5.7409991840
 H          0.5927566322       -6.3931669552        6.6861786693
 H         -7.1348934230        2.8079974586       -1.5555701603
 H         -8.3817637144        1.8086062487       -0.8001723883
 H         -7.7577461814       -0.0995749188       -2.2463461183
 H         -8.1551837666        1.3069236569       -3.2398951305
 H          4.9420737893        5.8823679226        3.6712250464
 H          4.4112386732        5.9241860719        5.3555727655
 H          2.8422645183        7.1678134629        3.8629644243
 H          2.0513257716        5.7944974218        4.6453094163
 H          4.3001538328        4.8496816329       -8.2641088341
 H          3.4398241981        5.5055095036       -6.8675672421
 H          5.8105748056        5.1080274527       -6.2917173586
 H          5.6641154194        3.4174002557       -6.7820743399
 H         -2.5315598791       -5.0927663165        5.0228808678
 H         -1.3086069766       -4.6956572087        6.2349873784
 H          2.2966102360       -6.2059626626        4.9017435510
 H          1.0847197103       -6.5796779230        3.6730373928
 H         -6.6503473955        0.2376706417        0.0265004515
 H         -6.3126378097        1.8750227408        0.6010416420
 H         -5.7492806581        1.8442725680       -3.4849672468
 H         -6.0756351190        0.2020981988       -4.0447719497
 H          3.4258360703        3.6568975188        5.1210883395
 H          5.1385023358        3.6351290017        4.6882577750
 H          3.1572715766        5.8229418763        1.7934757714
 H          1.4513580016        5.8767515259        2.2475678720
 H          3.4293673431        2.5795219226       -7.7571355071
 H          2.1000634868        3.7253618137       -7.9508594797
 H          4.1299164943        4.7521039692       -4.4975016921
 H          5.4725707515        3.6190324229       -4.3221668636
 H         -2.7850766160       -1.2765611225        1.2099903327
 H          2.9502785490       -0.3028610073        3.8157911816
 H         -1.6201576207        1.4586388653       -3.7546328159
 H          2.5676127694        2.7934113580       -1.1827523557
 H         -0.5642632940       -0.6931978164        4.8192132855
 H          2.6438622330       -3.7061586258        1.2349716267
 H         -2.0719357692        2.6820181813        2.6407332559
 H          4.3863822997       -0.0570792097       -0.1953925637
 H         -2.0102335772       -2.7268094407       -4.5045713399
 H          0.1298256259        0.0650378902        1.0420696700
 H          1.1583514957       -0.5058196433       -6.3515839274
 H          1.3276053798       -0.9080823239       -2.9420766566
 H         -1.6348213492       -3.1640662327        2.2255937954
 H          1.9701491743       -2.3226139622        4.6624253525
 H         -3.2325432888        2.3881346230        0.5671462049
 H          4.4399891015        1.8734671404        1.1313123876
 H         -3.5809140962       -1.6675639437       -3.0585999866
 H          1.0172303850        1.9030079201        2.1588933494
 H          0.2891408460        2.6828401136       -4.5748189796
 H          2.8813093975        0.4518329693       -4.1180189157
 H         -0.8090331770       -4.9784147433        3.2261032188
 H          1.0235650247       -4.1452906744        5.5329042294
 H         -4.6423803106        2.1966277605       -1.1914735964
 H         -5.2528823627       -0.7243503874       -1.8952226562
 H          4.5243908169        3.7913016044        2.2625610604
 H          1.6777573835        3.6425483167        3.3563787570
 H          1.9254167129        3.9580991363       -5.4686284712
 H          4.1252762802        1.8386878221       -5.4476216813
 C         -7.1127631080        0.6543728323        3.6996588533
 C         -5.6123807586        0.6532955971        3.4043277204
 O         -7.4113211558        1.5412897931        4.7640836033
 C         -6.9639331935        2.8516251399        4.4634651480
 C         -5.4631133618        2.8522467762        4.1694438784
 O         -5.1623815883        1.9645178420        3.1031366481
 H         -7.4448602722       -0.3323039391        4.0220000447
 H         -5.0659697139        0.2718123272        4.2787989658
 H         -7.5108139527        3.2358780729        3.5901587325
 H         -4.9125074671        2.5442111619        5.0696309252
 H         -5.3812364636        0.0470919164        2.5287371020
 H         -7.1884825169        3.4602316177        5.3393753527
 H         -5.1297028304        3.8397341151        3.8496419239
 H         -7.6651695465        0.9608248648        2.8001068632