142
-211.12689061
 C          0.7232918150       -6.4475816739        3.4072948508
 C         -0.4311573865       -6.4472576530        2.4103498714
 C         -0.6516327515        5.9787341767        6.5540210183
 C         -1.8549769300        6.0197777128        5.6174657219
 C         -3.8079520913        6.7502217737       -2.0132624921
 C         -4.7196247708        6.1524927333       -3.0803039518
 C          4.8846346460       -2.8077247553       -3.4291874913
 C          3.9687102896       -3.2900711993       -4.5493557153
 C          1.6182639702       -5.2341673670        3.1828352671
 C         -1.2358104307       -5.1584715028        2.5285580088
 C          0.1228683027        4.6784168293        6.3709205913
 C         -1.4078981410        5.8649979521        4.1680645519
 C         -3.7554828921        5.8446330505       -0.7878233603
 C         -4.2456331013        4.7559369576       -3.4666556343
 C          4.4738692178       -1.4138099491       -2.9704401815
 C          2.5169411375       -3.2874853148       -4.0846411976
 C          1.9863679859        0.6655004500        3.8639272777
 C         -1.8431093987        0.4036110843        0.8854601466
 C          1.0665433270        1.8080505986        0.4980274497
 C         -2.1344591730        0.1791740671       -2.7720348105
 C          3.3687711743       -0.6303659902        2.3769019160
 C         -2.6390984145       -0.4020547881        3.0095057496
 C          3.6795158779        1.7597316609        2.5459201200
 C         -3.3200626764        1.7741612496        2.2042373914
 C          0.8815969214        4.1500414826       -0.0312663454
 C         -3.8622158588       -0.8645544735       -1.4576332398
 C          1.9055486408        2.6252398820       -1.6046917548
 C         -1.8788591617       -2.1068762084       -2.0578314653
 C          1.5672999855       -1.7533379980        3.6573507896
 C         -1.1326638268       -1.8286782022        1.6513235839
 C          2.1665999406        3.1326275531        3.9232285445
 C         -2.5000930192        2.6066881284        0.0158592789
 C          0.0235017901        3.3081987066        2.1400065126
 C         -4.0736406736        1.5234932914       -2.0264226530
 C          2.1111727322        0.2137324694       -1.0645894684
 C         -0.0532332554       -1.0167682231       -3.3311928361
 C          2.3305958120       -0.5619820751        3.3098307032
 C         -1.8833159043       -0.5968001592        1.8519777668
 C          2.6411958438        1.8326647944        3.4735181403
 C         -2.5546872538        1.5888239345        1.0536488923
 C          0.6574152867        3.0921887503        0.8489468708
 C         -3.3661533588        0.2556139067       -2.1232955575
 C          1.6928038735        1.5658480317       -0.7207366006
 C         -1.3800879484       -0.9876105162       -2.7296966606
 C          4.0295946911        0.5279474332        2.0218624329
 C         -3.3399381646        0.7787159479        3.1638262080
 C          1.4949242581        3.8943509093       -1.2440157143
 C         -3.1128606969       -2.0276494937       -1.4452239777
 C          0.8221619444       -3.9358489904        3.3083372846
 C         -0.3481096503       -3.9348881185        2.2915887638
 C          0.5925552473        4.5194169706        4.9272295201
 C         -0.6451861840        4.5590253824        3.9711205694
 C         -3.2669607074        4.4491742976       -1.1625074440
 C         -4.2081505447        3.8342723153       -2.2503459992
 C          3.0213868234       -1.4007870486       -2.4893328410
 C          2.0894304705       -1.8937949404       -3.6258381148
 Br         5.4456174611        0.4383551859        0.7423335006
 Br        -4.3614532377        1.0512382114        4.7553834515
 Br         1.7723397374        5.3408803286       -2.4614063567
 Br        -3.7930944193       -3.5543724356       -0.5193893080
 N          1.6665462454       -2.8232961099        2.9941935454
 N         -1.1163653151       -2.7510951641        2.5112815223
 N          1.1964981941        3.2455659554        4.7284454493
 N         -3.3020528396        3.5839642561       -0.0267715718
 N         -0.1547749407        4.4592550568        2.6334509788
 N         -3.6417221393        2.5725331561       -2.5877891166
 N          2.6472800712       -0.0593038538       -2.1729557384
 N          0.7608589291       -1.9528646942       -3.0960889306
 H          0.3260674524       -6.4228900778        4.4244775251
 H          1.3128588380       -7.3593516216        3.2977645499
 H         -1.0866852471       -7.2996947818        2.5949170295
 H         -0.0378001158       -6.5382654564        1.3955068315
 H          0.0050402627        6.8255002912        6.3412889442
 H         -0.9821955559        6.0605443142        7.5906683369
 H         -2.5428902940        5.2106488500        5.8731072559
 H         -2.3875545728        6.9648305126        5.7348404977
 H         -2.8010041696        6.8686907246       -2.4197259694
 H         -4.1717624702        7.7365959907       -1.7212148607
 H         -4.7265184980        6.7904759603       -3.9655057139
 H         -5.7411031863        6.0959231498       -2.6971622593
 H          5.9192840439       -2.7833959951       -3.7745139437
 H          4.8270299161       -3.4998314222       -2.5862068724
 H          4.2504511847       -4.2986875811       -4.8563874087
 H          4.0747076756       -2.6321782152       -5.4147789023
 H          2.4302155306       -5.2179079749        3.9127498018
 H          2.0620475345       -5.2711524258        2.1864760768
 H         -2.0487026444       -5.1464092780        1.8000732175
 H         -1.6751452006       -5.0761195866        3.5238664166
 H         -0.5062984768        3.8239255934        6.6254522614
 H          0.9973271776        4.6603595297        7.0246554333
 H         -0.7585923773        6.6930648061        3.8792392429
 H         -2.2720571267        5.8650628560        3.5012999753
 H         -4.7453749390        5.7559603852       -0.3373291272
 H         -3.0788621185        6.2581411553       -0.0377740732
 H         -3.2436423126        4.8015466440       -3.8963749438
 H         -4.9131984765        4.3197652193       -4.2126483740
 H          4.5697854832       -0.7014646526       -3.7913002487
 H          5.1146686180       -1.0744327222       -2.1544760451
 H          2.3861336176       -3.9792754268       -3.2507623269
 H          1.8564150447       -3.6061629594       -4.8936399501
 H          1.1842370644        0.7446593101        4.5812290603
 H         -1.2600797940        0.2582242564       -0.0128819571
 H          0.9020563668        0.9924100645        1.1877632767
 H         -1.7679847369        1.0581830393       -3.2792617407
 H          3.6285635170       -1.5867259908        1.9522032536
 H         -2.6617110123       -1.1804454938        3.7550545143
 H          4.1953803588        2.6550230656        2.2329788626
 H         -3.8727780691        2.6921137729        2.3231680192
 H          0.5662500292        5.1417872094        0.2504794929
 H         -4.8134904204       -0.8199883452       -0.9490468854
 H          2.3905180233        2.4289040912       -2.5473064099
 H         -1.2868731822       -3.0076144786       -2.0309986050
 H          0.8781030039       -1.6476376307        4.5065128971
 H         -0.5841648467       -1.8985297443        0.6983430547
 H          2.6637522649        4.0067047939        3.4775549620
 H         -1.7139095609        2.4604812844       -0.7395332824
 H         -0.2822536626        2.3923407845        2.6672414034
 H         -4.9725977541        1.5252847788       -1.3925760594
 H          1.9284915227       -0.5493590978       -0.2911789142
 H          0.2014133465       -0.1590592430       -3.9689344840
 H          0.3832062548       -3.8425400871        4.3161111840
 H          0.0829575507       -3.9610098297        1.2750306770
 H          1.2612784072        5.3481727493        4.6363496874
 H         -1.2747919247        3.6937809929        4.2362464327
 H         -2.2592276252        4.4928819146       -1.6071810928
 H         -5.2113951063        3.7342526667       -1.8006620803
 H          2.8938394647       -2.0772123217       -1.6255744803
 H          2.1671455666       -1.1684793840       -4.4533749507
 C          2.8467142807       -9.2283016702       -7.4658825579
 C          2.1197863032      -10.5622895383       -7.2841739252
 O          4.1595413717       -9.4391490197       -7.9580914791
 C          4.1260982937      -10.1591980802       -9.1789642357
 C          3.3984130523      -11.4928543328       -8.9976258347
 O          2.0855798807      -11.2813794733       -8.5056130924
 H          2.9578384458       -8.7116672811       -6.5125049793
 H          2.6356548655      -11.1612004645       -6.5197142207
 H          3.6113285414       -9.5606949538       -9.9445120964
 H          3.9578025153      -12.1243849284       -8.2923142398
 H          1.0809201005      -10.4042605234       -6.9941875848
 H          5.1651085065      -10.3181273813       -9.4678739100
 H          3.2872486585      -12.0091814778       -9.9511980738
 H          2.2866394942       -8.5975535239       -8.1713897007