142
-211.12677467
 C          1.0007520071       -6.5977061750        2.2692845386
 C          0.3613836480       -6.5429868842        0.8855595550
 C         -2.6729063569        5.2920219143        5.7063594769
 C         -3.4131573611        5.3814410909        4.3756118261
 C         -2.2677061491        6.9126454802       -3.2901302792
 C         -2.6368653565        6.4094009867       -4.6819870557
 C          7.1305629188       -1.9492884162       -1.9786227560
 C          6.7798329606       -2.3373311070       -3.4113702462
 C          1.7828865254       -5.3183046876        2.5429493994
 C         -0.5475852317       -5.3254948926        0.7678220094
 C         -1.7745802922        4.0605547216        5.7357014206
 C         -2.4236913971        5.4146642864        3.2161641264
 C         -2.6123596651        5.8661072088       -2.2363850764
 C         -1.9226093786        5.0961698495       -4.9813827707
 C          6.4402565458       -0.6453350180       -1.5973328755
 C          5.2693982159       -2.4664779845       -3.5709487047
 C          1.2851134669        0.4644160640        3.8307398479
 C         -1.0071482713        0.3580728409       -0.4645474050
 C          1.6566006765        1.9493124556        0.4966139516
 C          0.1716747977        0.5742003890       -3.9336038206
 C          3.2589628257       -0.5726083777        2.9194873250
 C         -2.5102271354       -0.7601164830        1.0470151304
 C          3.2517497902        1.7918207548        3.4159096595
 C         -3.0230743591        1.4646596169        0.2502772355
 C          1.4654428513        4.3242019359        0.1465375061
 C         -1.8272364233       -0.7022927448       -3.5130605427
 C          3.1624667745        3.0565223417       -1.0200953883
 C          0.3387958089       -1.7640906073       -3.3800175026
 C          1.2123981476       -1.9302941058        3.2541117068
 C         -0.4425028471       -1.9128355953        0.3104783800
 C          1.1960014388        2.9126848038        4.1816146178
 C         -1.4786821364        2.6162222438       -1.3124934700
 C         -0.0846035462        3.1852232000        1.7132913918
 C         -2.0207592328        1.7222329859       -3.9032979842
 C          3.3757011055        0.6128635706       -0.6586394379
 C          2.4070234491       -0.4405573300       -3.7163988786
 C          1.9344375116       -0.6686855887        3.3544865172
 C         -1.3331345855       -0.7604514963        0.2964274579
 C          1.9287119776        1.7010133393        3.8464137071
 C         -1.8423689182        1.4720662952       -0.4913673751
 C          1.0204351392        3.1580320495        0.7679120029
 C         -1.2168347224        0.5118930859       -3.8247990483
 C          2.7274180758        1.8891919029       -0.3900542346
 C          0.9541736910       -0.5499920658       -3.6964523288
 C          3.8948467719        0.6511548155        2.9690917800
 C         -3.3303991941        0.3512956033        1.0105241244
 C          2.5231499180        4.2492508124       -0.7409664313
 C         -1.0380359538       -1.8196346096       -3.3055762628
 C          0.8804897720       -4.0897228103        2.4343930646
 C          0.2298897985       -4.0336830441        1.0285142222
 C         -0.7657675548        4.0916823267        4.5905789564
 C         -1.5295073451        4.1791408437        3.2278794225
 C         -1.8913625846        4.5519181783       -2.5180299039
 C         -2.2736488396        4.0331149104       -3.9437538656
 C          4.9217665113       -0.7661697855       -1.7419909865
 C          4.5645963894       -1.1629733550       -3.1973463504
 Br         5.7032981425        0.7870775791        2.3678917335
 Br        -4.9338104382        0.3568410186        2.0500059692
 Br         3.1098608009        5.8439143206       -1.6149717766
 Br        -1.8814407785       -3.4761991571       -2.8647657103
 N          1.6671182142       -2.9041562083        2.5915284529
 N         -0.6787043872       -2.9318486101        1.0149268225
 N         -0.0176971360        2.8813657114        4.5397400304
 N         -2.2880072673        3.5507829569       -1.5802121793
 N         -0.5484132627        4.2596958962        2.1933476893
 N         -1.5045833447        2.8521580342       -4.1463568330
 N          4.3259518454        0.5052569611       -1.4807522415
 N          3.1469680871       -1.3531656750       -3.2539982316
 H          0.2219236912       -6.7165292433        3.0258448930
 H          1.6718454340       -7.4554962390        2.3386131596
 H         -0.2218945576       -7.4473367078        0.7055694420
 H          1.1424073169       -6.4887153391        0.1239960097
 H         -2.0645068368        6.1885683568        5.8460305649
 H         -3.3881268630        5.2385395623        6.5286816781
 H         -4.0708677918        4.5162141413        4.2661334786
 H         -4.0315432477        6.2800997544        4.3519137576
 H         -1.1970851710        7.1261326677       -3.2524255341
 H         -2.8038345701        7.8378366619       -3.0729981050
 H         -2.3609087490        7.1514246460       -5.4328882448
 H         -3.7170194566        6.2564303999       -4.7396522721
 H          8.2101001548       -1.8292624401       -1.8755901201
 H          6.8130423831       -2.7416365890       -1.2972350172
 H          7.2548578453       -3.2850946187       -3.6702193905
 H          7.1539546649       -1.5740041503       -4.0972086802
 H          2.2187157159       -5.3436756453        3.5438317936
 H          2.5969605251       -5.2120625037        1.8239187851
 H         -0.9892282755       -5.2718652791       -0.2290554161
 H         -1.3607185237       -5.3884818084        1.4926029092
 H         -2.3731770428        3.1527971957        5.6442655394
 H         -1.2275204295        4.0104699804        6.6794050206
 H         -1.7908597956        6.3012318766        3.2809627580
 H         -2.9550131559        5.4478484296        2.2632990847
 H         -3.6868991221        5.6764922113       -2.2254114608
 H         -2.3207629393        6.2147317225       -1.2440149652
 H         -0.8413473253        5.2428617537       -4.9736561546
 H         -2.2058663178        4.7248684846       -5.9684421022
 H          6.7826255026        0.1665424056       -2.2408113075
 H          6.6721898633       -0.3765924291       -0.5650383198
 H          4.8881832679       -3.2607599280       -2.9268811583
 H          5.0142612492       -2.7177179948       -4.6025311757
 H          0.2606999751        0.4164815056        4.1661712224
 H         -0.0989071766        0.3620226646       -1.0503672326
 H          1.3174266499        1.0493080120        0.9895746810
 H          0.6240488377        1.5239811518       -4.1734337258
 H          3.7544973133       -1.4567941067        2.5518351935
 H         -2.7543127906       -1.6301053461        1.6350354380
 H          3.7628733321        2.7427759451        3.4207414108
 H         -3.6663616697        2.3292490975        0.2187589757
 H          0.9709551361        5.2564348521        0.3673364800
 H         -2.9012855129       -0.7656792705       -3.4236648420
 H          3.9911481224        3.0007710517       -1.7074185997
 H          0.9540352572       -2.6306035981       -3.1979162965
 H          0.2371263012       -1.9641520494        3.7590764494
 H          0.4467858186       -1.8321239702       -0.3348651189
 H          1.7436324768        3.8573280699        4.0488439565
 H         -0.4476285389        2.6064740770       -1.6958315946
 H         -0.4844710831        2.1988991279        1.9915190596
 H         -3.0915757599        1.6025685221       -3.6820734266
 H          2.9801018052       -0.2470932329       -0.0949136894
 H          2.8103158251        0.4970794816       -4.1231054115
 H          0.0634969225       -4.1383444003        3.1741548996
 H          1.0360521682       -3.9102899774        0.2837064422
 H         -0.1156405880        4.9809887923        4.6624242579
 H         -2.1309459778        3.2589844637        3.1450468648
 H         -0.7984886424        4.6965054499       -2.5186109777
 H         -3.3585229536        3.8287722946       -3.9406909460
 H          4.5302910133       -1.5492055430       -1.0685536887
 H          4.8926182050       -0.3392165348       -3.8537461207
 C         -5.7965157445      -12.1932409550        0.5005825823
 C         -6.9768420328      -11.9250585335        1.4364982296
 O         -6.1684637643      -11.9640662470       -0.8482613344
 C         -6.6459047092      -10.6394925838       -1.0163706205
 C         -7.8256574169      -10.3701934965       -0.0800217307
 O         -7.4546003071      -10.6007596406        1.2689177896
 H         -5.4826273725      -13.2356042712        0.5574966777
 H         -7.7861114410      -12.6377653889        1.2212431192
 H         -5.8363145716       -9.9268625514       -0.8025959182
 H         -8.6652598418      -11.0280398864       -0.3474287861
 H         -6.6743832664      -12.0102176513        2.4803364340
 H         -6.9492815060      -10.5547773335       -2.0599350330
 H         -8.1376461303       -9.3272649415       -0.1364714928
 H         -4.9582947841      -11.5335410246        0.7675214900