142
-211.12674360
 C          3.0245295105       -7.0445709057        1.6157663199
 C          2.9756902093       -7.0338179357        0.0913252983
 C         -5.8012075856        2.2814905012        3.1154853373
 C         -5.9741704219        2.2825724605        1.5999251082
 C         -2.6931472014        5.0865618061       -5.0292300835
 C         -2.2837267088        4.6790229491       -6.4410207893
 C          8.0780819414       -0.0195629959        0.1033178239
 C          8.4687073041       -0.3290005336       -1.3382492106
 C          3.1087559776       -5.6208231956        2.1537167977
 C          1.7922521637       -6.2069829240       -0.3966064090
 C         -4.5917378458        1.4431682220        3.5139481460
 C         -4.7143656845        2.8069384481        0.9199463496
 C         -2.9984359642        3.8536136431       -4.1859305496
 C         -1.0767547550        3.7485290620       -6.3992322259
 C          6.8659059713        0.9032551796        0.1391300653
 C          7.2959899329       -0.9572683551       -2.0823833251
 C          0.0500869496       -0.5947328020        3.0272611126
 C         -0.2562536058       -0.9318377603       -1.8107944285
 C          1.0536932493        1.3629816391        0.0878432951
 C          1.9814291908        0.1403396503       -4.5209949530
 C          2.4532642878       -0.7563228134        3.0000764123
 C         -1.6833480603       -2.6921119140       -0.9990439061
 C          1.3867348589        1.3726406082        3.4080819883
 C         -2.6475955246       -0.7021161534       -1.9780685713
 C          0.1354219776        3.5405953228       -0.3746291527
 C          0.6025976446       -1.7959327953       -4.9103726320
 C          2.4860444532        3.1092743448       -0.7444939962
 C          2.7841640235       -2.0448257869       -3.9025223725
 C          1.0919344378       -2.7694892804        2.5156329393
 C          0.7779677546       -2.9438025632       -0.8331271924
 C         -1.0616994804        1.6035337184        3.2717775195
 C         -1.1774420400        1.1105062835       -2.8198712320
 C         -1.3403967722        1.7432157731        0.4900628636
 C         -0.3158843718        0.4384056158       -5.3925313631
 C          3.4445427171        0.8748003999       -0.2571245321
 C          4.1732835592       -0.0520441279       -3.4107703807
 C          1.1997622117       -1.3604825665        2.8712126619
 C         -0.4022797460       -2.1834952057       -1.2205236441
 C          0.1341865214        0.7745247910        3.2760558172
 C         -1.3696343289       -0.1860936637       -2.1895432062
 C         -0.0390422698        2.2255347117        0.0545848204
 C          0.7860895946       -0.4152805728       -4.9750481586
 C          2.3171279101        1.7956277846       -0.3032746087
 C          2.9737860046       -0.6619482787       -3.9697180661
 C          2.5227300037        0.5938230932        3.2768083404
 C         -2.7794001575       -1.9418746459       -1.3800223670
 C          1.3930919597        3.9541948820       -0.7738215468
 C          1.6091864929       -2.5855889340       -4.3835079938
 C          1.9229304563       -4.7828971548        1.6770527016
 C          1.8726142337       -4.7717640585        0.1276995899
 C         -3.3196691509        1.9697457517        2.8546501396
 C         -3.4998599359        1.9665679143        1.3008072566
 C         -1.7908548313        2.9240396043       -4.1247628193
 C         -1.3754945351        2.5005571555       -5.5724656751
 C          5.6783718915        0.2760016049       -0.5939838551
 C          6.0754727592       -0.0379681010       -2.0592554364
 Br         4.2352056551        1.4233776179        3.4479171403
 Br        -4.5327405382       -2.6317858362       -1.0620828602
 Br         1.6217121603        5.7468716074       -1.3943471048
 Br         1.3443572784       -4.4752421004       -4.2861321903
 N          2.0898128680       -3.4292156963        2.1115119104
 N          0.6942940749       -4.0657618098       -0.2633187707
 N         -2.2169450817        1.1089633842        3.1205169744
 N         -2.1103453302        1.7319829808       -3.4060429061
 N         -2.3109023154        2.5172419680        0.7325343687
 N         -0.2081747306        1.6992026540       -5.4241870001
 N          4.6015908955        1.2136200936       -0.6271927662
 N          4.9650239324       -0.7016232329       -2.6721645667
 H          2.1258303333       -7.5278561008        2.0053924446
 H          3.8895499399       -7.6144403553        1.9591566959
 H          2.8848304666       -8.0525699046       -0.2885884975
 H          3.9023407447       -6.6092756182       -0.3011159375
 H         -5.6641173989        3.3065063799        3.4675899450
 H         -6.6952820381        1.8778593619        3.5933369388
 H         -6.1751731337        1.2655065576        1.2557946946
 H         -6.8245410028        2.9069906021        1.3214515279
 H         -1.8825248025        5.6521420235       -4.5642093332
 H         -3.5742574155        5.7290589510       -5.0667216083
 H         -2.0380574815        5.5647640974       -7.0290115199
 H         -3.1176796560        4.1700374593       -6.9298203583
 H          8.9100029223        0.4575296583        0.6236149616
 H          7.8426401517       -0.9493150402        0.6258684093
 H          9.3194984409       -1.0121729911       -1.3578942949
 H          8.7656002649        0.5941339504       -1.8409516502
 H          3.1168753762       -5.6247023229        3.2456263431
 H          4.0279129737       -5.1418602467        1.8119682071
 H          1.7683741995       -6.1790408218       -1.4876092763
 H          0.8552068212       -6.6463803849       -0.0512216512
 H         -4.7338294367        0.4048012572        3.2100273102
 H         -4.4551399248        1.4624139806        4.5971747709
 H         -4.5259060931        3.8409961114        1.2130379536
 H         -4.8277352103        2.7787038352       -0.1652958397
 H         -3.8396731955        3.3019449311       -4.6086644576
 H         -3.2630250200        4.1447111668       -3.1677978631
 H         -0.2200265470        4.2591619426       -5.9565200707
 H         -0.7999611311        3.4381462073       -7.4089110369
 H          7.1004870513        1.8554161392       -0.3391751368
 H          6.5710425313        1.1084973331        1.1699266713
 H          7.0204440190       -1.9066960748       -1.6200966260
 H          7.5648472075       -1.1544318518       -3.1221787297
 H         -0.9287639343       -1.0374176713        2.9267251373
 H          0.7331779904       -0.5342848891       -1.9870587801
 H          0.9172776179        0.3474669182        0.4316106989
 H          2.1022768839        1.2110128010       -4.5784033460
 H          3.3392056630       -1.3585878777        2.8780722540
 H         -1.7876839677       -3.6616070786       -0.5392142564
 H          1.4677632254        2.4320793728        3.5994125012
 H         -3.5035624525       -0.1200297801       -2.2795281124
 H         -0.7150147515        4.2029929878       -0.3917562161
 H         -0.3181999526       -2.2406673254       -5.2566780900
 H          3.4675704114        3.4355374350       -1.0484700543
 H          3.5595558552       -2.6590146809       -3.4735129097
 H          0.0860027992       -3.2054452767        2.5883321464
 H          1.7444226535       -2.4726189714       -1.0735343211
 H         -0.8943866598        2.6877614168        3.3515423193
 H         -0.1545756486        1.5107134540       -2.7600608289
 H         -1.4183286648        0.6520514828        0.6060474031
 H         -1.2611659734       -0.0750552370       -5.6220715595
 H          3.2167982379       -0.1333775122        0.1244864642
 H          4.3213100055        1.0116104976       -3.6430546577
 H          0.9717420485       -5.2121324930        2.0347806153
 H          2.7887554149       -4.2763759563       -0.2399259389
 H         -3.1190621366        3.0109615167        3.1617836341
 H         -3.6417094420        0.9147268368        1.0028133797
 H         -0.9209098630        3.4399382450       -3.6863917248
 H         -2.2182192308        1.9336468461       -6.0051486906
 H          5.3822503076       -0.6716891185       -0.1101463071
 H          6.2999841459        0.9226266721       -2.5530419318
 C        -10.4913884869        0.2394111389       10.8673372803
 C         -9.5663296297        1.0743529650        9.9796557273
 O        -10.0577491769       -1.1098643922       10.9091721396
 C         -8.7192833589       -1.1903655695       11.3695361193
 C         -7.7941547900       -0.3558110242       10.4815485419
 O         -8.2273185443        0.9936235622       10.4394631945
 H        -11.5049194041        0.2215956943       10.4664653345
 H         -9.6215387301        0.7086298889        8.9441323756
 H         -8.6641175344       -0.8240926191       12.4049272341
 H         -7.7879814910       -0.7715062031        9.4635266460
 H         -9.8381982691        2.1293438076       10.0166562886
 H         -8.4471799396       -2.2453379512       11.3334333770
 H         -6.7804664809       -0.3383722890       10.8821813111
 H        -10.4979885077        0.6548977096       11.8854388251