142
-211.12757839
 C          2.7921390345       -7.0096431226        1.9163716774
 C          2.5739342596       -7.0659533131        0.4078565612
 C         -5.2982524960        2.8753215763        3.8079878663
 C         -5.6187076619        2.8218220218        2.3176107770
 C         -3.0275071853        5.0977740260       -4.6946524294
 C         -2.7974745048        4.5936897365       -6.1157934632
 C          8.0939694078       -0.2556306032       -0.5527800832
 C          8.2887448770       -0.6369532654       -2.0166613003
 C          3.0125641618       -5.5702372505        2.3670918030
 C          1.3889509673       -6.1944908145        0.0096955592
 C         -4.1001775248        1.9883920468        4.1278729339
 C         -4.4071999276        3.2487706761        1.4966809909
 C         -3.2847895936        3.9294935157       -3.7495241081
 C         -1.6314656615        3.6122249034       -6.1513600856
 C          6.9353271282        0.7236409902       -0.4086023195
 C          7.0075509332       -1.2386279633       -2.5822670822
 C          0.3504092554       -0.3312456001        3.2907080493
 C         -0.5243973646       -0.8712069003       -1.4288564898
 C          1.1715010036        1.4729266959        0.1648552045
 C          1.4814958683       -0.0161179057       -4.4124525065
 C          2.7233629468       -0.6375769964        3.0134880328
 C         -1.9376381688       -2.5050183063       -0.3668960725
 C          1.8258590058        1.5683288701        3.4203536235
 C         -2.9030460931       -0.5078954142       -1.3297582820
 C          0.3232178987        3.6852930929       -0.2665061949
 C          0.0027214395       -1.9122639203       -4.5549384251
 C          2.5987421137        3.1199803041       -0.8573637524
 C          2.2748770460       -2.2026374462       -3.7868525798
 C          1.2087979295       -2.5866266764        2.7897441888
 C          0.5080083166       -2.8964927411       -0.4754623133
 C         -0.6070811101        1.9380863411        3.5336571936
 C         -1.4492096331        1.1732444121       -2.4319066551
 C         -1.1467452193        1.9932342637        0.7955217607
 C         -0.8869931317        0.3330039307       -5.0415227378
 C          3.4874326903        0.8501997598       -0.4069208028
 C          3.7812672449       -0.2488099583       -3.5548182736
 C          1.4323856258       -1.1710944680        3.0535707015
 C         -0.6665549772       -2.0846586843       -0.7627464896
 C          0.5357613657        1.0406951545        3.4554038678
 C         -1.6335273076       -0.0792553232       -1.7153096135
 C          0.1265273389        2.3920619969        0.2163314432
 C          0.2243625285       -0.5438275096       -4.7041687853
 C          2.4085817515        1.8277369195       -0.3644501946
 C          2.5026513479       -0.8323300667       -3.9397893888
 C          2.8962990627        0.7175514434        3.2087155587
 C         -3.0290417017       -1.7082027495       -0.6548512701
 C          1.5533711835        4.0217170003       -0.8008027056
 C          1.0352074145       -2.7172878610       -4.1072895279
 C          1.8287822937       -4.6853432658        1.9786441087
 C          1.6046059630       -4.7438710725        0.4455952521
 C         -2.8734834840        2.4157741000        3.3259406062
 C         -3.2042828722        2.3606648946        1.7977393529
 C         -2.1187283499        2.9464303639       -3.7665684883
 C         -1.8838738066        2.4268510660       -5.2232053843
 C          5.6399768578        0.1280296273       -0.9637884772
 C          5.8379993455       -0.2637573106       -2.4508497366
 Br         4.6596234037        1.4506398786        3.1478675841
 Br        -4.7656681878       -2.2738930851       -0.0936132123
 Br         1.8093870296        5.7852268238       -1.4908015415
 Br         0.7198122255       -4.5897310717       -3.8944678639
 N          2.1179524783       -3.3251004027        2.3181414102
 N          0.4293289066       -3.9877655778        0.1517597310
 N         -1.7966282767        1.5055132102        3.5228322060
 N         -2.4102862753        1.8101483225       -2.9520283540
 N         -2.0512056940        2.8252519298        1.0952846536
 N         -0.7378696494        1.5846358606       -5.1560768364
 N          4.6121259579        1.1180216357       -0.9107156622
 N          4.6346745386       -0.9015046162       -2.8914703375
 H          1.9179095773       -7.4205056084        2.4262292199
 H          3.6582252239       -7.6133395405        2.1927436763
 H          2.3873716903       -8.0939740921        0.0935337379
 H          3.4720581398       -6.7146211338       -0.1048196496
 H         -5.0743005490        3.9050754429        4.0956928887
 H         -6.1612170165        2.5433267828        4.3869018385
 H         -5.9024593056        1.8034779189        2.0427189676
 H         -6.4602701893        3.4787831194        2.0926069366
 H         -2.1473950522        5.6499404235       -4.3574377661
 H         -3.8807333852        5.7775685641       -4.6730310544
 H         -2.5848721059        5.4329151791       -6.7799794305
 H         -3.7010045917        4.0974570753       -6.4774711305
 H          9.0033626043        0.2013989244       -0.1596376806
 H          7.8869175084       -1.1530483661        0.0343131653
 H          9.1017320704       -1.3587880693       -2.1112424706
 H          8.5579997472        0.2517646181       -2.5917565756
 H          3.1411896643       -5.5247088101        3.4504841652
 H          3.9128941072       -5.1631205815        1.9037630970
 H          1.2443358421       -6.2156688818       -1.0721200756
 H          0.4746439985       -6.5614367292        0.4785473145
 H         -4.3241209245        0.9476415172        3.8885152070
 H         -3.8554988726        2.0454255494        5.1904749284
 H         -4.1395855351        4.2822928239        1.7222454275
 H         -4.6277118807        3.1820925076        0.4298619639
 H         -4.1912520973        3.3965656093       -4.0411096578
 H         -3.4180528792        4.2894965343       -2.7277877887
 H         -0.7106755208        4.1064947997       -5.8374219014
 H         -1.4827998727        3.2338361377       -7.1648351152
 H          7.1490205645        1.6455125894       -0.9516830479
 H          6.7789515828        0.9801287394        0.6409147939
 H          6.7529328018       -2.1552823131       -2.0475326861
 H          7.1361337109       -1.4888325962       -3.6373587683
 H         -0.6562100594       -0.7185949101        3.3201455086
 H          0.4570045032       -0.5406747521       -1.7381883408
 H          1.0191670968        0.4748259320        0.5505683409
 H          1.6313674321        1.0455754216       -4.5332634867
 H          3.5562443083       -1.2968246073        2.8284314536
 H         -2.0381118648       -3.4445840501        0.1521013650
 H          1.9851373755        2.6288037948        3.5453014693
 H         -3.7565100105        0.1091850751       -1.5602597884
 H         -0.4900998754        4.3913715695       -0.2177582511
 H         -0.9655372772       -2.3354289553       -4.7762636981
 H          3.5598037240        3.3856389884       -1.2672425993
 H          3.0732005999       -2.8274900736       -3.4197085708
 H          0.1945311446       -2.9563212220        2.9942082042
 H          1.4647781714       -2.4929095712       -0.8436467178
 H         -0.3741148410        3.0129989599        3.5450646148
 H         -0.4086494687        1.5232178896       -2.5005523952
 H         -1.2647154276        0.9129085929        0.9653841932
 H         -1.8698579246       -0.1516367771       -5.1363478268
 H          3.2539174778       -0.1331927359        0.0314874324
 H          3.9374799909        0.7979249891       -3.8501700219
 H          0.9015672239       -5.0383774804        2.4609363361
 H          2.4985722377       -4.3210912234       -0.0461900131
 H         -2.5898281685        3.4555787569        3.5647021251
 H         -3.4254257067        1.3068379565        1.5615858624
 H         -1.1841748914        3.4406662471       -3.4540686225
 H         -2.7902373310        1.8746211033       -5.5270304494
 H          5.3619940826       -0.7833228261       -0.4053429310
 H          6.0375027061        0.6646304293       -3.0123234773
 C         -8.8997814130       -2.1210293828        7.8258939907
 C         -7.8931554543       -1.8818927252        8.9530920907
 O         -9.3536153693       -0.8876133343        7.2942654813
 C         -8.2619850925       -0.1115359360        6.8294355665
 C         -7.2541681349        0.1269138575        7.9558799055
 O         -6.8007920103       -1.1061740496        8.4891869086
 H         -9.7850641555       -2.6376206082        8.1968054053
 H         -8.3886561945       -1.3587388668        9.7837992344
 H         -7.7674688000       -0.6329424113        5.9972209302
 H         -7.7267208060        0.7197497593        8.7524409538
 H         -7.4711009064       -2.8231025126        9.3056506099
 H         -8.6865420151        0.8297064743        6.4799956653
 H         -6.3677927058        0.6414666551        7.5851554465
 H         -8.4262970567       -2.7126651454        7.0291433083