142
-211.13172636
 C          4.2689595175       -6.2200695691        2.3845486238
 C          3.6327380377       -6.4639779976        1.0197561794
 C         -3.8498558971        2.9227352257        6.5240974120
 C         -4.7756788408        2.5349952332        5.3753542154
 C         -4.6216572965        3.2814756521       -4.9456825830
 C         -4.7718003284        2.3075078176       -6.1101046503
 C          7.1845584602       -0.1460509684       -1.4391730816
 C          7.2102734830       -0.8168986328       -2.8088714855
 C          4.4500660799       -4.7260219351        2.6286862882
 C          2.3004341437       -5.7315514301        0.9122157568
 C         -2.5047721731        2.2179543252        6.3884897354
 C         -4.1239201302        2.8524587397        4.0341592253
 C         -4.4687043533        2.5258186038       -3.6301094904
 C         -3.5776643417        1.3619690792       -6.1715398899
 C          5.9171697480        0.6843540401       -1.2745004760
 C          5.9675100119       -1.6783639194       -3.0032723813
 C          1.5724060704        0.2449859224        4.0703828513
 C         -0.5668981660       -1.1305899794       -0.8861414009
 C          0.6313272152        1.0576043171        0.8179842680
 C          0.1957622654       -1.4775473050       -4.2353622093
 C          3.7619892797        0.2024355169        3.0676037082
 C         -1.3270195101       -2.2923242490        1.0787375318
 C          2.7028592466        2.3134868253        3.5781485642
 C         -2.7987197937       -0.7544498576       -0.0720508397
 C         -0.8226679207        2.8250464046        0.0747140620
 C         -1.1002369403       -3.4201095143       -3.6500009842
 C          1.1768406941        2.2817879957       -1.1783790801
 C          1.2898569837       -3.4044912855       -3.2918064712
 C          2.5446557239       -1.9259398603        3.4393602989
 C          0.9589772976       -2.7223590258        0.2100087823
 C          0.3940933422        2.3872036696        4.4401294540
 C         -2.0158609185        0.4174969295       -2.1213660265
 C         -1.3412305941        1.5780146635        2.1714646068
 C         -2.2656573353       -1.3791271707       -4.4042704379
 C          2.6882174258        0.4700813420       -0.4001226931
 C          2.5943430374       -1.3364525400       -3.7180217590
 C          2.6409720240       -0.4767698514        3.5509840793
 C         -0.3288133450       -2.0452754324        0.1350252407
 C          1.5826075002        1.6390039722        4.0612174092
 C         -1.7985185338       -0.4916231424       -1.0064953978
 C         -0.5141963923        1.8290522406        0.9999612774
 C         -1.0394125898       -2.1163948805       -4.1394511963
 C          1.4898673180        1.2852979481       -0.2530638245
 C          1.3535851289       -2.0976004338       -3.7804149287
 C          3.7781334715        1.5818918096        3.1064266416
 C         -2.5352598222       -1.6327432186        0.9624434768
 C          0.0229780138        3.0212577709       -1.0017049572
 C          0.0687137253       -4.0467042829       -3.2562969347
 C          3.1111743154       -3.9947551709        2.5298870125
 C          2.4899404096       -4.2275104767        1.1331972591
 C         -1.8486031458        2.5470646195        5.0477781285
 C         -2.7999283440        2.1082901608        3.8929759640
 C         -3.2658924470        1.5896147013       -3.6822947092
 C         -3.4312099379        0.5843720439       -4.8652943039
 C          4.6705378568       -0.1901608512       -1.4455450906
 C          4.6976800062       -0.8404741648       -2.8470976704
 Br         5.3140896429        2.5151164711        2.4567081864
 Br        -3.8853821823       -1.9277622811        2.2784847725
 Br        -0.4242380324        4.3516112197       -2.2896746599
 Br        -0.0226495239       -5.8378103072       -2.5969125032
 N          3.3159922976       -2.5868127482        2.6898955654
 N          1.2146147540       -3.5816238313        1.0980690990
 N         -0.6375723157        1.8132805688        4.8922683115
 N         -3.1607364396        0.8234983819       -2.4756457493
 N         -2.1604164574        2.4179903672        2.6451658191
 N         -2.2469836464       -0.2066294170       -4.8770795968
 N          3.5034840796        0.6318755608       -1.3495264750
 N          3.5465355662       -1.6838300811       -2.9657244962
 H          3.6294496234       -6.6401250317        3.1640716564
 H          5.2385280665       -6.7179150725        2.4397655940
 H          3.4692901784       -7.5320033294        0.8675349976
 H          4.3054037236       -6.1108148330        0.2349760141
 H         -3.6947075153        4.0042344215        6.5178663378
 H         -4.3048735584        2.6538189485        7.4787977876
 H         -4.9942584432        1.4661021844        5.4258225828
 H         -5.7196764664        3.0759746689        5.4553769957
 H         -3.7416052735        3.9082602613       -5.1043073142
 H         -5.4941936333        3.9343665430       -4.8904289179
 H         -4.8477345463        2.8570043691       -7.0498228894
 H         -5.6885085253        1.7264510917       -5.9842256687
 H          8.0557479201        0.5002119335       -1.3211472542
 H          7.2225893020       -0.9086804362       -0.6581372956
 H          8.1022400601       -1.4383346298       -2.9047273199
 H          7.2469161928       -0.0520577780       -3.5878094633
 H          4.8740686241       -4.5499062544        3.6194584469
 H          5.1320979480       -4.3013384112        1.8900598054
 H          1.8559503788       -5.8920550111       -0.0712231766
 H          1.5999188736       -6.1061626550        1.6603113789
 H         -2.6353334743        1.1366397344        6.4527430608
 H         -1.8308341295        2.5255328336        7.1910233744
 H         -3.9329428870        3.9244757111        3.9560328805
 H         -4.7909214961        2.5693668630        3.2190678222
 H         -5.3626350936        1.9332338617       -3.4264418107
 H         -4.3258652863        3.2281558476       -2.8076636757
 H         -2.6585667110        1.9239126500       -6.3439986728
 H         -3.6974954557        0.6487207565       -6.9899352608
 H          5.8861556904        1.4812493491       -2.0193076131
 H          5.8920258190        1.1484284353       -0.2874096900
 H          5.9449434621       -2.4826070561       -2.2657501917
 H          5.9689478897       -2.1318709610       -3.9967163695
 H          0.6978520067       -0.2575612955        4.4535536237
 H          0.2117233571       -0.9262850587       -1.6059854043
 H          0.8662870619        0.2791774306        1.5290385093
 H          0.2216890950       -0.4706838127       -4.6222025995
 H          4.5895124364       -0.3646709136        2.6729207064
 H         -1.1344173841       -2.9938046048        1.8745533009
 H          2.7270374103        3.3927233291        3.5666939368
 H         -3.7533079499       -0.2643293011       -0.1666492276
 H         -1.7186011838        3.4117802022        0.1929879041
 H         -2.0486328350       -3.9299282475       -3.5714567912
 H          1.8396991774        2.4522149309       -2.0115965966
 H          2.1925783396       -3.8823834368       -2.9472278601
 H          1.7281584338       -2.3959895022        4.0048495169
 H          1.6865983506       -2.4374102704       -0.5655480329
 H          0.4286012023        3.4714268412        4.2561190925
 H         -1.1034318642        0.7083581043       -2.6603711415
 H         -1.1738929296        0.6010718848        2.6475814182
 H         -3.1998897958       -1.8748867829       -4.1007903468
 H          2.8324290769       -0.2959728915        0.3780631937
 H          2.6198137898       -0.4117116703       -4.3110729660
 H          2.4010677011       -4.3868442934        3.2783572046
 H          3.1736368759       -3.8170333375        0.3695337446
 H         -1.6838676551        3.6357430026        4.9533286108
 H         -2.9518036884        1.0226804206        4.0009025584
 H         -2.3432603404        2.1586024095       -3.8767499664
 H         -4.3332720796       -0.0222916703       -4.6686504942
 H          4.6652251813       -0.9899653142       -0.6842753598
 H          4.6797602563       -0.0269991175       -3.5930087393
 C         -6.0124834234        2.6619449142        0.3334654736
 C         -4.5155840818        2.5808675020        0.0369958162
 O         -6.2703454351        3.6400302356        1.3265903975
 C         -5.7732635495        4.9046505078        0.9228980810
 C         -4.2763305521        4.8258618017        0.6206318921
 O         -4.0226507115        3.8463654587       -0.3754138371
 H         -6.3839708268        1.7175555286        0.7321423084
 H         -3.9735029987        2.2640281952        0.9400034749
 H         -6.3123285117        5.2410139571        0.0252039260
 H         -3.7255579959        4.5607174613        1.5336396006
 H         -4.3095344339        1.8957467172       -0.7872234216
 H         -5.9685279817        5.5866954508        1.7503279061
 H         -3.9104195879        5.7711343854        0.2180907840
 H         -6.5569812062        2.9196239418       -0.5861999356