142
-211.12707514
 C          3.7374829939       -6.6873303670        2.6744387507
 C          3.4016544318       -7.0266898151        1.2258372955
 C         -6.0976792819        1.5241811558        4.2107664959
 C         -6.5384430810        1.1624858654        2.7959526208
 C         -5.1136905651        2.8346621997       -4.7468918305
 C         -4.9230643691        2.1741082875       -6.1085424672
 C          7.1786042516        0.4338755085       -1.3086487686
 C          7.3199252451       -0.1292884887       -2.7190749560
 C          3.6820171686       -5.1796688798        2.8924627241
 C          2.0258455350       -6.4840915121        0.8585583184
 C         -4.7080942002        0.9656880591        4.4961114850
 C         -5.5337735797        1.6842498498        1.7747567967
 C         -5.0335208795        1.7952266503       -3.6344628778
 C         -3.5893780933        1.4374147296       -6.1623351984
 C          5.8560804236        1.1768405640       -1.1628928602
 C          6.1501954272       -1.0520323313       -3.0412392561
 C          0.0423735468       -0.5069052685        3.4247988512
 C         -1.1138367949       -1.9540466505       -1.0592834406
 C          0.1485616691        0.8656175571        0.0134263243
 C          0.3527958525       -1.2255655566       -4.3561612104
 C          2.3888135012       -0.3652015014        2.9000812350
 C         -2.0403138002       -3.6595505549        0.3644432743
 C          1.0721497279        1.6489903392        3.1186598430
 C         -3.4972531065       -2.0739200901       -0.7358437356
 C         -1.1939258961        2.7618245212       -0.6202831061
 C         -0.7145879090       -3.3625399578       -4.0463692501
 C          1.0834710700        2.5668693370       -1.4098546548
 C          1.6296582448       -3.0924858402       -3.5279784846
 C          1.3221815239       -2.5914794707        3.1262847125
 C          0.4138475229       -3.5530394813        0.0299797504
 C         -1.3622324531        1.5298237612        3.4792142347
 C         -2.5446895939       -0.3196280657       -2.2087147451
 C         -2.1577534230        1.0117710136        0.8502583749
 C         -2.0850710470       -1.4326235135       -4.7293793968
 C          2.4785172685        0.6248162900       -0.7550879029
 C          2.7174456390       -0.8771092899       -3.7553489834
 C          1.2551690396       -1.1365570875        3.1697440965
 C         -0.9300224594       -3.0529807333       -0.2256504829
 C         -0.0624990030        0.8826143713        3.3818868546
 C         -2.3894293203       -1.4583797049       -1.3172101963
 C         -1.0607690588        1.5543827116        0.0642293920
 C         -0.7915069426       -2.0198398996       -4.4141757325
 C          1.2241103099        1.3639518960       -0.7154790230
 C          1.5577615313       -1.7473831306       -3.8999692083
 C          2.2782674893        1.0103674988        2.8910393109
 C         -3.3002769872       -3.1579963288        0.0995972024
 C         -0.1213430234        3.2406534235       -1.3498226967
 C          0.4970853989       -3.8757147302       -3.6187223500
 C          2.3047965677       -4.6232028020        2.5331569040
 C          1.9621642152       -4.9688144199        1.0612658155
 C         -3.6877276087        1.4948280230        3.4916161332
 C         -4.1422080698        1.1201285774        2.0421251311
 C         -3.6964183478        1.0623738579       -3.6693751527
 C         -3.5019430236        0.3807808794       -5.0641600465
 C          4.6729428193        0.2574512846       -1.4728608348
 C          4.8174783242       -0.3165829443       -2.9057381265
 Br         3.8249429873        2.0668556110        2.5160400621
 Br        -4.8181100740       -3.9796739714        0.9194369801
 Br        -0.3173524361        4.8796460269       -2.3121805820
 Br         0.5908116589       -5.7132054328       -3.1036275795
 N          2.3217352278       -3.1963129604        2.6473373754
 N          0.6298320155       -4.5205374248        0.8095379669
 N         -2.4229902185        0.8677056915        3.6758153503
 N         -3.6638833204        0.0300711559       -2.6832590684
 N         -3.1902773443        1.6832055097        1.1387408036
 N         -2.2066596178       -0.2092816145       -5.0308396763
 N          3.4664404976        1.0205418049       -1.4317506107
 N          3.7409899807       -1.2376984802       -3.1098770396
 H          3.0218256133       -7.1772806480        3.3383940214
 H          4.7345630016       -7.0540173325        2.9240512488
 H          3.4133752407       -8.1080528220        1.0810864054
 H          4.1531704857       -6.5900259120        0.5644240245
 H         -6.0817961771        2.6109175360        4.3211004559
 H         -6.8058722662        1.1218427530        4.9368846933
 H         -6.6166576837        0.0766999061        2.7055233902
 H         -7.5212279891        1.5895774810        2.5902306191
 H         -4.3371050335        3.5878663126       -4.5958659550
 H         -6.0819697422        3.3360779421       -4.7071707327
 H         -4.9524771613        2.9280068739       -6.8968361854
 H         -5.7360653449        1.4666991940       -6.2875321580
 H          8.0015254324        1.1170983642       -1.0931101971
 H          7.2192632126       -0.3819523674       -0.5836103778
 H          8.2555421007       -0.6837348873       -2.8094010656
 H          7.3437839875        0.6922301153       -3.4385022927
 H          3.8952342521       -4.9364286922        3.9354104717
 H          4.4276133354       -4.6805697645        2.2711701221
 H          1.7918396864       -6.7067741524       -0.1841874046
 H          1.2581467074       -6.9459388434        1.4812916478
 H         -4.7183088776       -0.1238515423        4.4366410416
 H         -4.3837041443        1.2460337685        5.5003889707
 H         -5.4799175055        2.7733217673        1.8158297007
 H         -5.8345500571        1.3986418505        0.7651583013
 H         -5.8339370855        1.0612681318       -3.7408601988
 H         -5.1405238851        2.2728995021       -2.6589193383
 H         -2.7636977446        2.1390065395       -6.0329385384
 H         -3.4652182460        0.9445832272       -7.1288250656
 H          5.8204452240        2.0245078932       -1.8489181923
 H          5.7424028381        1.5610586003       -0.1474458693
 H          6.1433271035       -1.9049319591       -2.3604024279
 H          6.2351429188       -1.4351954840       -4.0602389989
 H         -0.8481113442       -1.0811204224        3.6286681734
 H         -0.2582691393       -1.4822167725       -1.5213224576
 H          0.2525422759       -0.0635303106        0.5556355948
 H          0.2709780903       -0.1886511354       -4.6431113419
 H          3.3250232876       -0.8622961321        2.7027042251
 H         -1.8887290417       -4.5091864538        1.0104920912
 H          1.0063816666        2.7260300299        3.0825657080
 H         -4.4813524669       -1.6870652950       -0.9461248016
 H         -2.1317993877        3.2911976323       -0.5701925919
 H         -1.5925485118       -3.9896897449       -4.0844939046
 H          1.9208931195        2.9446813400       -1.9739712838
 H          2.5685836599       -3.4884192657       -3.1755533692
 H          0.4365748011       -3.1217103278        3.5030080841
 H          1.2235971537       -3.0301337636       -0.5035854118
 H         -1.3714726453        2.6171642569        3.3140923131
 H         -1.6132775866        0.2126221087       -2.4522059159
 H         -2.0210101573       -0.0263422501        1.1874099935
 H         -2.9526924797       -2.1019633149       -4.6341043355
 H          2.5036533445       -0.2983656962       -0.1543542321
 H          2.6276847873        0.1184642539       -4.2114979024
 H          1.5232690360       -5.0740671263        3.1679841421
 H          2.6962809666       -4.4602928067        0.4114266326
 H         -3.6190620012        2.5954561902        3.5423639880
 H         -4.1487189044        0.0190118347        1.9893703417
 H         -2.8589852438        1.7684251043       -3.5448064068
 H         -4.3008291982       -0.3726060914       -5.1775651874
 H          4.6465865678       -0.5910112236       -0.7663261973
 H          4.7666112704        0.5328750599       -3.6077974900
 C          1.5416527215        8.5787586291        7.6565678012
 C          1.5534846277       10.1000596049        7.4942359450
 O          1.5332541279        7.9418388363        6.3894855876
 C          2.6498774142        8.3526711237        5.6173193796
 C          2.6613899824        9.8739195697        5.4553562434
 O          2.6695665292       10.5100301122        6.7223473061
 H          0.6385657961        8.2483224994        8.1700541955
 H          0.6259673340       10.4245020442        7.0004839382
 H          3.5770944270        8.0280603314        6.1111533926
 H          1.7723017278       10.1905658917        4.8909515625
 H          1.6526788292       10.5943509236        8.4607095355
 H          2.5516122202        7.8582839271        4.6507856992
 H          3.5645626195       10.2040277915        4.9420859959
 H          2.4309441412        8.2622487179        8.2205587479