142
-211.12686722
 C          1.2850269092       -6.8943107680        1.5834713409
 C          0.9684769222       -6.8131750197        0.0936283168
 C         -4.2065594193        4.4021703125        4.5624258943
 C         -4.6397424571        4.5128340915        3.1040517828
 C         -2.0236626769        6.5923181885       -4.0205549630
 C         -2.0038418928        6.1451772244       -5.4787964808
 C          7.7780615800       -1.3704494409       -0.9683005234
 C          7.7926227493       -1.7065953394       -2.4559876778
 C          1.8575734745       -5.5705099625        2.0767434192
 C         -0.0056347540       -5.6740226933       -0.1813362277
 C         -3.2189913608        3.2543749867        4.7396899025
 C         -3.4270437551        4.7082506230        2.2009063022
 C         -2.4830973066        5.4517379837       -3.1191540543
 C         -1.0987162491        4.9306927179       -5.6517394928
 C          6.8837772588       -0.1650607279       -0.7046796697
 C          6.3764785615       -1.9726423277       -2.9533053297
 C          0.5216052301        0.0638282247        3.4307429802
 C         -0.7438420388        0.0178448067       -1.2456501030
 C          1.4949591062        1.8164445827        0.3388682564
 C          1.1845051092        0.5772138660       -4.3370929141
 C          2.7410511455       -0.7458282049        2.9617409014
 C         -2.4257299862       -1.3300218761       -0.1737801077
 C          2.3937807904        1.5758638673        3.5332506542
 C         -2.9738924737        0.8854070623       -0.9726880670
 C          1.1382011377        4.1814217907        0.0571552416
 C         -0.7046453258       -0.9136062524       -4.4399232672
 C          3.1811159502        3.1579390374       -0.7342934693
 C          1.4805268679       -1.7649372845       -3.8590923590
 C          0.8129108487       -2.2908411478        2.7644127288
 C         -0.1381139671       -2.2398189109       -0.4601477816
 C          0.1197124061        2.4694582102        3.8504135622
 C         -1.2450342830        2.2732731295       -2.0850043213
 C         -0.5968536073        2.8024390806        1.1715439948
 C         -1.0715071036        1.5007308243       -4.7646137207
 C          3.5655349262        0.7268509695       -0.4377403951
 C          3.4139139368       -0.2267519986       -3.6611654099
 C          1.3679911776       -0.9798111619        3.0747253203
 C         -1.1157064063       -1.1735049871       -0.6301591236
 C          1.0227204653        1.3474228119        3.6426851805
 C         -1.6631298366        1.0495540993       -1.4189617709
 C          0.6896269244        2.9401377634        0.5067671391
 C         -0.1776685049        0.3723602771       -4.5520052271
 C          2.7401372262        1.9157478609       -0.2744147094
 C          2.0134352249       -0.4783040795       -3.9751401242
 C          3.2281818776        0.5224607397        3.2037763197
 C         -3.3274729855       -0.2984590464       -0.3519312397
 C          2.3720090977        4.2645847577       -0.5615922622
 C          0.1365193655       -1.9596493519       -4.1042777223
 C          0.8863069344       -4.4204535114        1.8133337873
 C          0.5629030133       -4.3372988767        0.2993708637
 C         -1.9900468861        3.4477626778        3.8551847241
 C         -2.4374016847        3.5586076232        2.3600262457
 C         -1.5766087485        4.2349335503       -3.2743219291
 C         -1.5607215246        3.7739894414       -4.7693205355
 C          5.4558806618       -0.4251884123       -1.1890635385
 C          5.4708143213       -0.7678602082       -2.7009126896
 Br         5.1042449921        0.8465705036        3.0437933266
 Br        -5.1158420963       -0.5079752331        0.2871633735
 Br         2.9696320300        5.9615382058       -1.2053925229
 Br        -0.5961134284       -3.7165384723       -3.9401367551
 N          1.4981972722       -3.1825245015        2.1903288450
 N         -0.4245599403       -3.3209185997        0.1225897319
 N         -1.1341999690        2.3119619792        3.9220585936
 N         -2.0670487772        3.1420575684       -2.4969110601
 N         -1.2639245066        3.7958392325        1.5817650133
 N         -0.6409989613        2.6891204969       -4.8325676714
 N          4.6829174477        0.7639312927       -1.0213320729
 N          4.1292184444       -1.0908086853       -3.0814914227
 H          0.3724697091       -7.1247432872        2.1376921596
 H          2.0041627301       -7.6934467120        1.7709692174
 H          0.5309721477       -7.7522067331       -0.2488202898
 H          1.8905848176       -6.6466396811       -0.4675027637
 H         -3.7362459088        5.3373069612        4.8751003842
 H         -5.0766940390        4.2331644710        5.1987657938
 H         -5.1671295587        3.6022338654        2.8109905195
 H         -5.3242613012        5.3535132602        2.9805197203
 H         -1.0211513126        6.9081322159       -3.7231833832
 H         -2.6950116618        7.4439874336       -3.9001210438
 H         -1.6461552332        6.9572791867       -6.1137489283
 H         -3.0177210869        5.8903129862       -5.7958583925
 H          8.7895725079       -1.1514389025       -0.6228850191
 H          7.4074774959       -2.2285472541       -0.4032856463
 H          8.4121277049       -2.5868916498       -2.6354947596
 H          8.2229349232       -0.8717953705       -3.0136429236
 H          2.0597832591       -5.6176028841        3.1487718329
 H          2.7969117932       -5.3516177617        1.5661272798
 H         -0.2160626200       -5.5994583171       -1.2499019918
 H         -0.9500041055       -5.8504759717        0.3358033772
 H         -3.6891663099        2.3058974127        4.4750669028
 H         -2.8917554086        3.1903216973        5.7794916421
 H         -2.9165229876        5.6411071740        2.4455745000
 H         -3.7356323983        4.7562171715        1.1550396835
 H         -3.5038226561        5.1571786594       -3.3682947172
 H         -2.4671800939        5.7635220732       -2.0732656736
 H         -0.0717416819        5.1822893557       -5.3820601637
 H         -1.1026467404        4.5972982700       -6.6915405771
 H          7.2681754578        0.7128436150       -1.2261900472
 H          6.8539590536        0.0638112169        0.3622696687
 H          5.9516249175       -2.8362500285       -2.4388083558
 H          6.3814207233       -2.1872428942       -4.0239551523
 H         -0.5425929365       -0.0909499355        3.5186473861
 H          0.2681601622        0.1437927118       -1.6035598179
 H          1.1493680309        0.8579061845        0.6992777475
 H          1.5714976710        1.5803998385       -4.4270471066
 H          3.3897575002       -1.5615211864        2.6854024904
 H         -2.7043784873       -2.2554256800        0.3039040488
 H          2.7965842266        2.5646867932        3.6931516502
 H         -3.6799353698        1.6874400036       -1.1163352740
 H          0.5105234560        5.0468268600        0.1966457687
 H         -1.7577212953       -1.0876384312       -4.6021915221
 H          4.1461387717        3.2254334376       -1.2101107877
 H          2.1313279483       -2.5772666598       -3.5778038177
 H         -0.2432949077       -2.4374491467        3.0293827003
 H          0.8618781063       -2.0374727528       -0.8758070150
 H          0.5887753636        3.4637469181        3.8854467724
 H         -0.1586777020        2.3857389706       -2.2162189551
 H         -0.9452450210        1.7675580086        1.3045230638
 H         -2.1446078491        1.2627193136       -4.8055384640
 H          3.1482202501       -0.2014498202       -0.0158859242
 H          3.7921084157        0.7696339294       -3.9285176535
 H         -0.0661275220       -4.5837874768        2.3455118907
 H          1.4985313279       -4.0989474548       -0.2368101425
 H         -1.4628697162        4.3830364235        4.1121104638
 H         -2.9086659120        2.5963942253        2.1004136858
 H         -0.5357394649        4.4848829174       -3.0109964130
 H         -2.5880456054        3.4654551135       -5.0303868240
 H          5.0141198407       -1.2815968287       -0.6494600022
 H          5.8443371467        0.1211705447       -3.2367741623
 C         -8.2710744560       -9.6969948852        5.8120903375
 C         -7.2911641432       -9.1786268861        6.8667180265
 O         -9.2533452488       -8.7171249394        5.5202798847
 C         -8.6438002739       -7.5133058025        5.0848441252
 C         -7.6644211685       -6.9946566575        6.1396752833
 O         -6.6817889135       -7.9744996945        6.4320844847
 H         -8.8108550245      -10.5707535207        6.1773858898
 H         -7.8272081110       -8.9995433654        7.8100315694
 H         -8.1074878418       -7.6929850012        4.1418441319
 H         -8.2135323688       -6.7401066034        7.0577426394
 H         -6.4807238169       -9.8894686953        7.0288378356
 H         -9.4539194396       -6.8023958541        4.9218781951
 H         -7.1249145196       -6.1207218041        5.7745020420
 H         -7.7222999011       -9.9518456243        4.8938919339