142
-211.12964251
 C          1.5544652784       -6.9705829430        2.8006221063
 C          0.7492859611       -7.1893964589        1.5238364001
 C         -3.7839603578        4.4133076093        5.8855629162
 C         -4.7392443739        4.2332137530        4.7100270566
 C         -5.0254686917        5.0700596998       -3.1890541658
 C         -5.4634329487        4.3858290334       -4.4801273428
 C          6.0024665045       -1.6745551570       -2.6104159627
 C          5.5909742157       -2.2638997384       -3.9553687727
 C          2.0913197164       -5.5449023174        2.8508630915
 C         -0.3938149522       -6.1852778340        1.4382122023
 C         -2.6794850733        3.3633241145        5.8416258532
 C         -3.9808862445        4.3118032246        3.3897346304
 C         -5.0211167395        4.0748439726       -2.0341718624
 C         -4.5507643085        3.2059711875       -4.7954378220
 C          5.1080840232       -0.4930169256       -2.2578941929
 C          4.1288821511       -2.6959231839       -3.9201523914
 C          0.6489086764        0.1595481902        3.7033863162
 C         -2.1418928615       -0.8476530198       -0.1539596343
 C          0.2098939189        1.3576197889        0.2677681182
 C         -1.4924596951       -0.7340673378       -3.7869648408
 C          2.6423436416       -0.6123930573        2.5941401590
 C         -3.1853150119       -2.0728819577        1.6363813075
 C          2.2609062007        1.7548599419        2.8906619499
 C         -4.2288037908       -0.0731465834        0.7655802354
 C         -0.5161834966        3.5946682014       -0.2489884949
 C         -3.1215410948       -2.3136503065       -2.9787744187
 C          1.2168921083        2.5439698924       -1.5685551706
 C         -0.7893436331       -2.9327261128       -3.0992641363
 C          0.9536203339       -2.2619236696        3.3430560651
 C         -1.0394738574       -2.8823644667        0.6965710394
 C          0.1586679190        2.5796779549        3.8767527505
 C         -3.1586788493        1.1893533092       -1.0812046495
 C         -1.5427200491        2.3770062226        1.6542218064
 C         -3.8443732911       -0.0178767169       -3.5037682677
 C          1.9861997912        0.2485364811       -1.0303557779
 C          0.9095334702       -1.2834999090       -3.8314610862
 C          1.4285617049       -0.8889477570        3.2287362591
 C         -2.1378035924       -1.9262611239        0.7252974445
 C          1.0477598708        1.4833052934        3.5224402118
 C         -3.1786245142        0.0819481809       -0.1385614022
 C         -0.6136201706        2.4475140795        0.5373928803
 C         -2.8130692652       -1.0437169272       -3.4647559291
 C          1.1303812387        1.3987365826       -0.7748950066
 C         -0.4767664980       -1.6626262346       -3.5912472657
 C          3.0396092564        0.7008048366        2.4475553354
 C         -4.2084808371       -1.1442775947        1.6396593327
 C          0.3904256831        3.6164751129       -1.2929437121
 C         -2.1045890619       -3.2372538140       -2.8136723099
 C          0.9547325161       -4.5262033960        2.7711992685
 C          0.1331898471       -4.7493015276        1.4755357791
 C         -1.8994045514        3.4436003093        4.5318662894
 C         -2.8814808409        3.2564302703        3.3290594972
 C         -4.0972106945        2.8987623912       -2.3332492112
 C         -4.5505500039        2.1926269052       -3.6538153974
 C          3.6391284305       -0.9165191513       -2.2015289972
 C          3.2157274122       -1.5236977636       -3.5634370445
 Br         4.6961468237        1.0766361440        1.5783821640
 Br        -5.6342053149       -1.3377469054        2.8970924881
 Br         0.4944775263        5.1755564517       -2.3923914687
 Br        -2.5327223474       -4.9694368590       -2.1299331380
 N          1.5037945533       -3.2058584315        2.7101796850
 N         -0.9734790294       -3.8472648649        1.5058829778
 N         -0.9578528466        2.3793557146        4.4380089227
 N         -4.1629630983        1.9309004132       -1.2855827196
 N         -2.1155835598        3.3982715813        2.1319020014
 N         -3.5972813403        1.1619721373       -3.8901893864
 N          2.8294469853        0.2359838775       -1.9679328178
 N          1.8702259761       -1.9896579804       -3.4159005707
 H          0.9163239730       -7.1497552230        3.6687700874
 H          2.3876916475       -7.6740208691        2.8437198121
 H          0.3423267602       -8.2015504215        1.5054900708
 H          1.4017460777       -7.0726765559        0.6557402659
 H         -3.3389641660        5.4101543561        5.8443300277
 H         -4.3292664455        4.3262569886        6.8266812101
 H         -5.2324729676        3.2616602095        4.7874677641
 H         -5.5098680175        5.0053218297        4.7333685759
 H         -4.0215646448        5.4810910791       -3.3173302338
 H         -5.7004484143        5.8950719407       -2.9559802705
 H         -5.4354280919        5.0965914921       -5.3075455328
 H         -6.4913762847        4.0314262033       -4.3742162511
 H          7.0408285172       -1.3418598373       -2.6395852835
 H          5.9136735184       -2.4397954825       -1.8358391817
 H          6.2178854518       -3.1240936457       -4.1956593076
 H          5.7312025349       -1.5158993522       -4.7386431524
 H          2.6452186924       -5.3776077459        3.7769403023
 H          2.7708040840       -5.3677861519        2.0154212988
 H         -0.9587303216       -6.3253476734        0.5146387581
 H         -1.0800054073       -6.3205387419        2.2756499354
 H         -3.1046696490        2.3622293197        5.9296074118
 H         -1.9829351393        3.5081904087        6.6700396207
 H         -3.5237486335        5.2955208827        3.2712818160
 H         -4.6603150885        4.1515409837        2.5505546292
 H         -6.0270669921        3.6896305989       -1.8597574381
 H         -4.6809723608        4.5575360842       -1.1162000807
 H         -3.5271840080        3.5503450118       -4.9516994732
 H         -4.8803552705        2.7024873274       -5.7066216698
 H          5.2114907360        0.2955064393       -3.0045074143
 H          5.3876088831       -0.0763312990       -1.2890154165
 H          3.9858153430       -3.4813744508       -3.1759776389
 H          3.8236090286       -3.0923929353       -4.8907926957
 H         -0.2939174407       -0.0283527896        4.1932622033
 H         -1.3356573594       -0.7316020886       -0.8644103641
 H          0.1387381412        0.4737731377        0.8857026863
 H         -1.2752446793        0.2550258561       -4.1594103088
 H          3.2409792295       -1.4324603243        2.2312043218
 H         -3.1732824478       -2.9107857735        2.3146281163
 H          2.5821854455        2.7749282518        2.7422784700
 H         -5.0288879464        0.6495881211        0.7667305779
 H         -1.1534774435        4.4360513758       -0.0296246345
 H         -4.1392251650       -2.5674876403       -2.7229144122
 H          1.9303071595        2.5663769352       -2.3765058485
 H          0.0055141239       -3.6456682259       -2.9494496084
 H          0.0741267742       -2.4129831120        3.9839596700
 H         -0.2749315115       -2.7035908096       -0.0762323182
 H          0.4939031842        3.5846423108        3.5806207231
 H         -2.2067377641        1.3324688905       -1.6133921872
 H         -1.7000941944        1.3695548902        2.0672974544
 H         -4.8323991513       -0.3149385717       -3.1223850456
 H          1.8490374466       -0.6044959645       -0.3462516355
 H          1.0609724336       -0.3299604760       -4.3557850116
 H          0.2641953849       -4.6426738238        3.6235672249
 H          0.7960781025       -4.5578555824        0.6131143633
 H         -1.4225194420        4.4327255359        4.4178397464
 H         -3.3050985210        2.2429812835        3.4227871798
 H         -3.0637987689        3.2442329480       -2.5004016397
 H         -5.5646964945        1.7915757168       -3.4823823238
 H          3.4896706150       -1.6867332145       -1.4238454241
 H          3.2916278243       -0.7239801403       -4.3193072050
 C          9.3059187823       -0.8582639549        0.7680844855
 C          9.7387351428       -1.1801905772       -0.6636005879
 O          9.5397120719        0.5089707994        1.0607757998
 C          8.8500695789        1.3383040584        0.1401780439
 C          9.2774944087        1.0183007211       -1.2936539831
 O          9.0568381587       -0.3508244182       -1.5895585878
 H          9.8906703805       -1.4293463340        1.4894695941
 H         10.8230238224       -1.0260471137       -0.7621672772
 H          7.7664045376        1.1868604519        0.2488364044
 H         10.3446582372        1.2519288869       -1.4194312873
 H          9.4839874695       -2.2067219591       -0.9271987624
 H          9.1073539763        2.3644449375        0.4023555761
 H          8.6849254055        1.5855478350       -2.0110935638
 H          8.2365275895       -1.0807311663        0.8897896583