142
-211.12861536
 C          4.2808019782       -6.5025525819        2.8176239251
 C          3.8340601792       -6.8199195160        1.3941925532
 C         -4.7498188839        2.4141977938        4.7687680622
 C         -5.2767941385        2.0435178485        3.3864981094
 C         -4.0915683781        3.6692254796       -4.2995823515
 C         -4.0155775012        2.9838351774       -5.6602224141
 C          8.1170622578        0.3854696023       -1.4170572824
 C          8.1489472883       -0.2017663838       -2.8244173438
 C          4.3742873435       -4.9946177907        3.0202717862
 C          2.4948148939       -6.1564085977        1.0966494982
 C         -3.3776813947        1.7909700531        5.0007340228
 C         -4.3008045658        2.5019706534        2.3093276792
 C         -4.0431645596        2.6360909655       -3.1794525980
 C         -2.7477828036        2.1435173176       -5.7640794863
 C          6.8574781846        1.2196627590       -1.2174660277
 C          6.9039623345       -1.0447059213       -3.0759381323
 C          1.1795242025       -0.0259389329        3.7021296035
 C         -0.3243723151       -1.3914660358       -0.7286793113
 C          1.2145070779        1.3043359949        0.2601159652
 C          1.0509916431       -0.8030546324       -4.1082239160
 C          3.4966698171       -0.0768019694        3.0476935762
 C         -1.3192409231       -2.9716756735        0.7904215914
 C          2.3550410342        2.0378141905        3.3035654133
 C         -2.6869650358       -1.2854560017       -0.2742869302
 C         -0.0359419192        3.2755802534       -0.3316978444
 C         -0.1605219008       -2.8482227936       -3.7197761792
 C          2.1757647272        2.9203938302       -1.2427391820
 C          2.2203151742       -2.7548426590       -3.3180001796
 C          2.2678993384       -2.2082876437        3.3618359149
 C          1.1109617875       -3.1018294024        0.3160866419
 C         -0.0605596117        2.1113385686        3.7948717463
 C         -1.6649396768        0.3445822683       -1.8391967530
 C         -1.0259755381        1.6141572201        1.2215046329
 C         -1.4102842511       -0.8239398532       -4.3623314057
 C          3.4769675544        0.9006302289       -0.6306800322
 C          3.4608762490       -0.6304660669       -3.6261788745
 C          2.3226211708       -0.7526701385        3.3906013548
 C         -0.1940369279       -2.4844218513        0.1228951200
 C          1.1805041121        1.3668333845        3.6409613665
 C         -1.5625831579       -0.7872635211       -0.9312164133
 C          0.0576685067        2.0722098812        0.3664170021
 C         -0.1522795378       -1.5071180555       -4.1009859889
 C          2.2773158398        1.7209318820       -0.5356997088
 C          2.2334386168       -1.4117125706       -3.7035913522
 C          3.4935370271        1.3030529228        3.0228992585
 C         -2.5414064591       -2.3621352559        0.5809084345
 C          1.0220270050        3.6721305913       -1.1287570416
 C          1.0279013697       -3.4491325883       -3.3441935878
 C          3.0341269983       -4.3191521914        2.7324393669
 C          2.5800966615       -4.6403041807        1.2855660238
 C         -2.3809797801        2.2373720211        3.9340342227
 C         -2.9302087308        1.8659862680        2.5166048712
 C         -2.7701603788        1.8002268827       -3.2648386409
 C         -2.6943917460        1.0925532516       -4.6582106648
 C          5.6008488893        0.3799005410       -1.4555554268
 C          5.6339395470       -0.2163705055       -2.8862012618
 Br         5.0958455438        2.2297478295        2.5491622877
 Br        -4.0773482261       -3.0173308947        1.5083563684
 Br         0.8770094674        5.3046327007       -2.1107160179
 Br         1.0057179048       -5.2837546799       -2.8110676192
 N          3.1822457748       -2.8986131557        2.8311404468
 N          1.2818825349       -4.0739517976        1.1011173976
 N         -1.1522147235        1.5308559453        4.0656505405
 N         -2.7732666078        0.7797137673       -2.2660691603
 N         -1.9941546164        2.3560278875        1.5564241419
 N         -1.4498999539        0.4016444369       -4.6764057865
 N          4.4515517963        1.2227047723       -1.3634562061
 N          4.4857835672       -1.0598245959       -3.0265199040
 H          3.5625359396       -6.9206638540        3.5263909574
 H          5.2531110259       -6.9568480059        3.0155158421
 H          3.7390186815       -7.8988165927        1.2623110632
 H          4.5837247304       -6.4587703258        0.6867548501
 H         -4.6749171227        3.5008311330        4.8506940146
 H         -5.4407162219        2.0655380457        5.5378245586
 H         -5.3973146321        0.9594516641        3.3239552075
 H         -6.2516691728        2.5024484192        3.2176376710
 H         -3.2519134481        4.3596821676       -4.1924933436
 H         -5.0144337716        4.2462573904       -4.2228242570
 H         -4.0213492703        3.7306811472       -6.4557182801
 H         -4.8889163776        2.3413049620       -5.7941116943
 H          8.9946842957        1.0123127738       -1.2518699183
 H          8.1375577724       -0.4230749556       -0.6830643679
 H          9.0386901890       -0.8205633482       -2.9523637717
 H          8.1932541183        0.6082222436       -3.5558650072
 H          4.6677955393       -4.7644382575        4.0465506036
 H          5.1250154406       -4.5694453995        2.3519650630
 H          2.1845400885       -6.3633402224        0.0706970319
 H          1.7240419178       -6.5425037113        1.7654580524
 H         -3.4476726504        0.7023445805        4.9713113589
 H         -2.9883189265        2.0776940107        5.9799534033
 H         -4.1892090295        3.5869716124        2.3331986754
 H         -4.6674845346        2.2226854078        1.3201842102
 H         -4.9022844950        1.9662259199       -3.2420222287
 H         -4.0693650467        3.1281973403       -2.2055267728
 H         -1.8646597620        2.7788416116       -5.6793379339
 H         -2.7059594965        1.6344817484       -6.7292381894
 H          6.8454553841        2.0600347978       -1.9132192112
 H          6.8211175572        1.6220673514       -0.2033454345
 H          6.8721796344       -1.8875377395       -2.3833894670
 H          6.9117992922       -1.4438914585       -4.0922860340
 H          0.2594596992       -0.5251215502        3.9638178935
 H          0.5432220343       -1.0094106270       -1.2477673346
 H          1.2881197383        0.3774218257        0.8111288659
 H          1.0348059579        0.2343231941       -4.4045412734
 H          4.3787928537       -0.6482748501        2.8072425627
 H         -1.2086956210       -3.8158988610        1.4517415796
 H          2.3716641276        3.1160292937        3.2508834050
 H         -3.6424367417       -0.8152644576       -0.4421124899
 H         -0.9334682410        3.8656300843       -0.2388483272
 H         -1.0847128791       -3.4061627435       -3.7073296786
 H          3.0028138141        3.2344632954       -1.8588417680
 H          3.1422182327       -3.2186758837       -3.0057271780
 H          1.3647991954       -2.6598273837        3.7953804966
 H          1.9336692939       -2.6635626130       -0.2712450463
 H         -0.0012305245        3.1929755094        3.6045987399
 H         -0.7053310914        0.7930449584       -2.1359762861
 H         -0.9390475354        0.5732388951        1.5670067620
 H         -2.3218336002       -1.4218820438       -4.2161539938
 H          3.4736398062       -0.0158023528       -0.0191995867
 H          3.4227849060        0.3649150137       -4.0899828469
 H          2.2528099785       -4.6957432285        3.4142722092
 H          3.3200754149       -4.2051632191        0.5907017972
 H         -2.2397548480        3.3318219625        3.9576651613
 H         -3.0012654097        0.7660563407        2.4864063431
 H         -1.8754278553        2.4394831450       -3.1879994089
 H         -3.5549041999        0.4043833261       -4.7261395317
 H          5.5539035747       -0.4579540116       -0.7375159194
 H          5.6086637817        0.6280210202       -3.5957477206
 C         -9.3728920932        3.9792161595        2.3176838442
 C        -10.6347543007        4.0763523174        3.1770234308
 O         -8.5775396650        2.8783779328        2.7242169726
 C         -9.3202260555        1.6718128580        2.6568295648
 C        -10.5813502496        1.7699364508        3.5165724441
 O        -11.3776731647        2.8706418738        3.1100130799
 H         -8.7506620948        4.8663438712        2.4369454236
 H        -10.3542547829        4.2773131821        4.2211645808
 H         -9.6006554242        1.4719438124        1.6128363996
 H        -10.2983130060        1.8914243527        4.5721929945
 H        -11.2957008362        4.8625236792        2.8119069456
 H         -8.6602576964        0.8851293583        3.0216342644
 H        -11.2037118439        0.8828793260        3.3986112989
 H         -9.6549059714        3.8582191470        1.2619006146