142
-211.12688794
 C          2.3291933955       -7.2516105558        1.7783894054
 C          2.2023603133       -7.3150766473        0.2597419747
 C         -6.3670355891        2.1755850463        3.3516148774
 C         -6.6285380047        2.1198830184        1.8498492969
 C         -3.7272999191        4.6427475032       -4.9957847427
 C         -3.4017962429        4.1938203758       -6.4168003627
 C          7.3358238251       -0.1916554115       -0.3613897269
 C          7.6427132671       -0.5621625680       -1.8088223740
 C          2.4478567271       -5.8038496569        2.2403184829
 C          0.9992121852       -6.5047818189       -0.2072856862
 C         -5.1380642127        1.3476129002        3.7097326850
 C         -5.4098618184        2.6126239114        1.0774592535
 C         -3.9829405488        3.4351297817       -4.1009850367
 C         -2.1947626177        3.2624945142       -6.4190016275
 C          6.1176614896        0.7213982337       -0.2930378523
 C          6.4345974188       -1.2329819198       -2.4523859473
 C         -0.5382495947       -0.7246352394        3.0421116725
 C         -1.1109148797       -1.2765888773       -1.7326993077
 C          0.3065224826        1.1408637011       -0.0248347937
 C          0.9748438766       -0.2733166406       -4.6110034391
 C          1.8592473309       -0.9006760299        2.8925262134
 C         -2.4928098452       -3.0115584494       -0.7973654225
 C          0.8237438452        1.2480944637        3.2774360908
 C         -3.5083526124       -1.0554040598       -1.7919711684
 C         -0.6498351450        3.2940093117       -0.5239610353
 C         -0.4133272983       -2.2283367263       -4.8388905951
 C          1.6777040681        2.8557167319       -1.0114866430
 C          1.8259325831       -2.4282306969       -3.9531403943
 C          0.4663101355       -2.9246317548        2.5665225403
 C         -0.0265824085       -3.2549642097       -0.7386881254
 C         -1.6282602838        1.4863050039        3.2651836053
 C         -2.0866766803        0.7311045889       -2.7614024766
 C         -2.0638750395        1.5300528247        0.4968747371
 C         -1.3711282731       -0.0160401963       -5.3522685497
 C          2.6780923843        0.6492464917       -0.4856437168
 C          3.2293078996       -0.4099859686       -3.6284091298
 C          0.5985777812       -1.5024803686        2.8549337078
 C         -1.2251758121       -2.5084659842       -1.0956690885
 C         -0.4361535675        0.6524036282        3.2346165634
 C         -2.2434449868       -0.5448587910       -2.0811308314
 C         -0.7914563565        1.9975006108       -0.0309541340
 C         -0.2422147258       -0.8508401254       -4.9697181072
 C          1.5427729026        1.5614579803       -0.5057795426
 C          2.0031552614       -1.0486922056       -4.0881440463
 C          1.9480756748        0.4585532736        3.1139220908
 C         -3.6080343565       -2.2757899819       -1.1495846002
 C          0.5798903813        3.6946506618       -1.0130993459
 C          0.6275878571       -2.9921482453       -4.3411180935
 C          1.2431407958       -4.9815375783        1.7842311319
 C          1.1123177852       -5.0461834453        0.2407925104
 C         -3.9057022699        1.8450769634        2.9586688959
 C         -4.1753966713        1.7844545912        1.4191747019
 C         -2.7740714289        2.5053639014       -4.0835411184
 C         -2.4439859830        2.0393794010       -5.5403053870
 C          4.8952639582        0.0523143190       -0.9248999946
 C          5.2078088319       -0.3236801210       -2.3961021098
 Br         3.6698480081        1.2841454348        3.1598823688
 Br        -5.3422221313       -2.9582151400       -0.7275387935
 Br         0.7605966523        5.4594238920       -1.7224749328
 Br         0.3798647142       -4.8771937473       -4.1504286242
 N          1.4389532335       -3.6097644511        2.1435388683
 N         -0.0827365200       -4.3534917915       -0.1218039574
 N         -2.7907819784        0.9910947974        3.1929407932
 N         -3.0513659091        1.3355998385       -3.3130616646
 N         -3.0214498117        2.3122207013        0.7634239032
 N         -1.2687962044        1.2428836992       -5.4360789648
 N          3.8091970476        0.9796300671       -0.9350778961
 N          4.0696804339       -1.0221764575       -2.9119549573
 H          1.4492430291       -7.7084711607        2.2366667556
 H          3.2078533343       -7.8103822201        2.1050034337
 H          2.0876476728       -8.3505545777       -0.0644177540
 H          3.1095943691       -6.9166625178       -0.1997221378
 H         -6.2072379438        3.2126056835        3.6557881562
 H         -7.2324018521        1.7940765144        3.8958888953
 H         -6.8516069682        1.0913739060        1.5572647079
 H         -7.4924729786        2.7369483911        1.5979591616
 H         -2.8905008823        5.2197673162       -4.5957159664
 H         -4.6088698076        5.2856938035       -4.9998363321
 H         -3.1907202100        5.0617304525       -7.0435430810
 H         -4.2632688862        3.6727081385       -6.8407959858
 H          8.1920656942        0.3155146450        0.0858897253
 H          7.1427720098       -1.0989668954        0.2151438970
 H          8.4982163578       -1.2384807758       -1.8494004665
 H          7.8988831035        0.3398385962       -2.3690311666
 H          2.5119338639       -5.7541210949        3.3292557340
 H          3.3505267145       -5.3489950487        1.8288624225
 H          0.9193399912       -6.5299357449       -1.2957336046
 H          0.0792391723       -6.9201808561        0.2069236138
 H         -5.2995136520        0.2994410881        3.4528256783
 H         -4.9381775438        1.4054982639        4.7816702417
 H         -5.2035888385        3.6568640242        1.3177327016
 H         -5.5868992925        2.5416509073        0.0027654227
 H         -4.8475439484        2.8730599737       -4.4577058585
 H         -4.1874283237        3.7559115779       -3.0779978789
 H         -1.3134897146        3.7842117156       -6.0422717027
 H         -1.9777086231        2.9226384985       -7.4337668556
 H          6.3124648992        1.6532159775       -0.8261592191
 H          5.8826286437        0.9696532723        0.7436674370
 H          6.1978347737       -2.1632078333       -1.9331388928
 H          6.6427665183       -1.4738156633       -3.4969113028
 H         -1.5226468476       -1.1653561001        3.0110235670
 H         -0.1322235777       -0.8835884392       -1.9691311765
 H          0.1958949500        0.1402578377        0.3684124876
 H          1.0854369183        0.7945591542       -4.7186878820
 H          2.7352777237       -1.5119734291        2.7460415165
 H         -2.5718969797       -3.9659469773       -0.3022537570
 H          0.9186586851        2.3132026365        3.4260455303
 H         -4.3793493956       -0.4841460858       -2.0702539699
 H         -1.5036360927        3.9522338209       -0.5188608908
 H         -1.3504047720       -2.6901013691       -5.1113712145
 H          2.6380161774        3.1719186753       -1.3857125580
 H          2.6287975941       -3.0217609917       -3.5461142930
 H         -0.5366678528       -3.3497486707        2.7103766916
 H          0.9268800037       -2.7954515177       -1.0443985137
 H         -1.4544826986        2.5719209572        3.2983263076
 H         -1.0623599334        1.1319007768       -2.7708714131
 H         -2.1313046379        0.4441874847        0.6592416308
 H         -2.3265193537       -0.5388589721       -5.5059438400
 H          2.4809300615       -0.3431493148       -0.0496555079
 H          3.3542033304        0.6437003306       -3.9138443730
 H          0.3096837295       -5.3858555411        2.2111388392
 H          2.0096131721       -4.5747041664       -0.1977304390
 H         -3.6865626532        2.8963735099        3.2147526026
 H         -4.3337738617        0.7226110497        1.1689963854
 H         -1.8797635223        3.0319263758       -3.7117282372
 H         -3.3098576159        1.4604727838       -5.9060065509
 H          4.6383388008       -0.8749364492       -0.3827514947
 H          5.3923669384        0.6158725102       -2.9440349074
 C          2.3447501034        2.6856221865       10.5154839999
 C          2.1001882556        2.8995324235       12.0105280971
 O          1.1796188364        2.9983828997        9.7696048799
 C          0.7685551246        4.3318171192       10.0225527858
 C          0.5237828919        4.5451583817       11.5176381605
 O          1.6884900609        4.2325220452       12.2626806258
 H          2.5715114547        1.6408371795       10.3026592835
 H          1.3241219547        2.2030540703       12.3597407948
 H          1.5452791939        5.0278049428        9.6740257142
 H         -0.3072720064        3.9057439450       11.8490663686
 H          3.0172563660        2.7506112621       12.5805859153
 H         -0.1482508308        4.4815399925        9.4520567722
 H          0.2968547821        5.5899169609       11.7303311966
 H          3.1756230700        3.3246148434       10.1832978989