142
-211.12790881
 C          3.8535606073       -6.5532640081        2.8070734192
 C          3.3099921350       -6.8333812837        1.4096857332
 C         -4.1509599049        3.2864262075        5.1196325285
 C         -4.7893360977        2.9882852829        3.7667383812
 C         -3.9158768550        4.3898014417       -3.8274400137
 C         -3.9629299510        3.7190881510       -5.1967028725
 C          8.1064020009       -0.0980824293       -1.6961165379
 C          7.9922776339       -0.6896399485       -3.0973699515
 C          4.0869673556       -5.0588527855        2.9958748643
 C          2.0201808864       -6.0564415330        1.1752575291
 C         -2.8540341348        2.5014791638        5.2816677644
 C         -3.8212971260        3.3257981409        2.6384216077
 C         -3.9069569276        3.3432982048       -2.7186247297
 C         -2.7836335221        2.7678660256       -5.3662119396
 C          6.9584725150        0.8692327684       -1.4341944304
 C          6.6509041434       -1.3935065699       -3.2683671194
 C          1.4159059590        0.1971850364        3.7814068056
 C         -0.4588914745       -1.0416138410       -0.4953607375
 C          1.4292976988        1.5396775144        0.3371220523
 C          0.7995313538       -0.5453200333       -3.9433108723
 C          3.6833690055       -0.0986685630        3.0252937447
 C         -1.5201575682       -2.5689744865        1.0326654508
 C          2.7838528890        2.1247575045        3.3171597961
 C         -2.7849798647       -0.7529239632        0.0577340797
 C          0.3681454779        3.6337854667       -0.2013466175
 C         -0.5798267409       -2.4653394424       -3.4817538461
 C          2.4877141532        3.0517750767       -1.2084039665
 C          1.8178100144       -2.6048023425       -3.2196280397
 C          2.2585047298       -2.0894388467        3.4106329847
 C          0.8710854176       -2.8851674295        0.4587871780
 C          0.4165301191        2.4559877334        3.9195088704
 C         -1.6931360179        0.8206700196       -1.5191394817
 C         -0.7212956562        2.0815044983        1.3970469487
 C         -1.6640790448       -0.3294083482       -4.0564939588
 C          3.5942135069        0.9040298090       -0.6568763251
 C          3.2414471310       -0.6143963069       -3.6098515962
 C          2.4612877698       -0.6464263578        3.4249825179
 C         -0.3852836834       -2.1594368396        0.3299455577
 C          1.5616668760        1.5821191898        3.7113425318
 C         -1.6500851205       -0.3334906998       -0.6349965446
 C          0.3654957773        2.4247456531        0.4934073709
 C         -0.4638212146       -1.1298888373       -3.8652279385
 C          2.4934743551        1.8455161658       -0.5056387052
 C          1.9389070578       -1.2678750350       -3.6083637382
 C          3.8248584075        1.2735013123        2.9903863197
 C         -2.6954129228       -1.8579208400        0.8841872367
 C          1.4257629840        3.9204251674       -1.0446584107
 C          0.5643828259       -3.1800470378       -3.1740928152
 C          2.7984666389       -4.2685545865        2.7702705203
 C          2.2456893106       -4.5532008629        1.3500715127
 C         -1.8662475410        2.8367214508        4.1670811027
 C         -2.5245014133        2.5354116774        2.7798571476
 C         -2.7233057835        2.3938070390       -2.8723953270
 C         -2.7776576226        1.7011851298       -4.2744007922
 C          5.6074985984        0.1680345322       -1.5874732823
 C          5.4901220265       -0.4330438977       -3.0121926771
 Br         5.4927299247        2.0242225790        2.4370684440
 Br        -4.2455343906       -2.4074759612        1.8578970742
 Br         1.4109548169        5.5638985517       -2.0193789701
 Br         0.3962251034       -5.0057827232       -2.6359724110
 N          3.0793437490       -2.8673389864        2.8490687112
 N          0.9935933557       -3.8776676979        1.2272307267
 N         -0.7188184117        1.9974270705        4.2401062443
 N         -2.7758259545        1.3628629071       -1.8855883980
 N         -1.5881771831        2.9222573417        1.7737566289
 N         -1.6049931195        0.8985166084       -4.3582002122
 N          4.5611651187        1.1273746341       -1.4351113327
 N          4.2528851808       -1.1499565602       -3.0762142582
 H          3.1388093564       -6.9070003884        3.5534119806
 H          4.7920350867       -7.0891962683        2.9586302894
 H          3.1147266527       -7.9001198368        1.2897908142
 H          4.0519544402       -6.5407613702        0.6634937916
 H         -3.9398808446        4.3556145647        5.1952855056
 H         -4.8382611022        3.0207912235        5.9243550644
 H         -5.0529721294        1.9294686242        3.7139060150
 H         -5.7047055479        3.5699774018        3.6475900945
 H         -3.0156290267        5.0040795601       -3.7536827021
 H         -4.7809809554        5.0429981745       -3.7023778250
 H         -3.9343640645        4.4748018428       -5.9834090045
 H         -4.8969026590        3.1614834115       -5.2979023822
 H          9.0555798169        0.4287569368       -1.5869710113
 H          8.0801451067       -0.9016082010       -0.9567705639
 H          8.8009300196       -1.4015160398       -3.2711415052
 H          8.0807269011        0.1087302259       -3.8375699623
 H          4.4501707418       -4.8530331926        4.0049090725
 H          4.8375545603       -4.7018089671        2.2886144227
 H          1.6418006457       -6.2373376173        0.1673670247
 H          1.2533663096       -6.3725868965        1.8841234101
 H         -3.0547477561        1.4292552361        5.2530682963
 H         -2.3857657337        2.7318769416        6.2408422949
 H         -3.5817505918        4.3903305610        2.6484327391
 H         -4.2671098714        3.0889526287        1.6708058556
 H         -4.8271601361        2.7573595592       -2.7405382231
 H         -3.8373813604        3.8263294098       -1.7423575376
 H         -1.8427789557        3.3183142871       -5.3158106705
 H         -2.8321442044        2.2706352419       -6.3371760967
 H          6.9958569912        1.7008416977       -2.1395206902
 H          7.0254706293        1.2805189632       -0.4252531371
 H          6.5693972140       -2.2262367281       -2.5676829307
 H          6.5562016686       -1.7939235196       -4.2798117014
 H          0.4608883904       -0.2013383108        4.0869593022
 H          0.4154682782       -0.7205184902       -1.0434843372
 H          1.4292919671        0.6082599729        0.8854078415
 H          0.8664153024        0.4899296794       -4.2400269298
 H          4.4880154521       -0.7614722234        2.7500232405
 H         -1.4528587618       -3.4345022166        1.6718520424
 H          2.9120745706        3.1950561375        3.2569670898
 H         -3.7046626251       -0.2032176386       -0.0617160427
 H         -0.4573358324        4.3145427399       -0.0690591024
 H         -1.5513197045       -2.9315297022       -3.4153435931
 H          3.3155109962        3.2785930979       -1.8607152669
 H          2.7074977840       -3.1567658230       -2.9619673040
 H          1.3356797300       -2.4478409590        3.8873073952
 H          1.7012518023       -2.5094881810       -0.1605039505
 H          0.5850013601        3.5253822401        3.7252029365
 H         -0.7122362857        1.1854296197       -1.8576056464
 H         -0.7309887104        1.0365681619        1.7405936723
 H         -2.6188464183       -0.8425995397       -3.8698282055
 H          3.5243003718       -0.0104291480       -0.0465359543
 H          3.2759537232        0.3811743788       -4.0733952639
 H          2.0217894137       -4.5712670640        3.4928461802
 H          2.9849910802       -4.1849551291        0.6168717764
 H         -1.6025058383        3.9085463042        4.1824570716
 H         -2.7217709821        1.4509100106        2.7544634376
 H         -1.7698716636        2.9455175076       -2.8309998362
 H         -3.7008044297        1.0968638751       -4.3083376841
 H          5.5160957883       -0.6586014694       -0.8607398456
 H          5.5124992287        0.4069943842       -3.7268901116
 C         -9.2261811169       -1.3333152099        0.8153707711
 C         -9.1167931697        0.0018972100        1.5543964599
 O        -10.4749063629       -1.9505169267        1.0805998267
 C        -11.5441058398       -1.0919087257        0.7214958101
 C        -11.4346040692        0.2422479661        1.4627939985
 O        -10.1873086174        0.8604285233        1.1953356289
 H         -8.4616463638       -2.0307905253        1.1577275507
 H         -9.1359225566       -0.1764348871        2.6389733179
 H        -11.5234174206       -0.9124373049       -0.3634132188
 H        -11.5357864737        0.0705083605        2.5442280178
 H         -8.2007488192        0.5250100090        1.2801899770
 H        -12.4606315386       -1.6155585951        0.9939048343
 H        -12.2004097571        0.9402804175        1.1238608699
 H         -9.1233295594       -1.1642979167       -0.2664958416