142
-211.13134995
 C          1.7489739252       -7.0526625417        1.9432739273
 C          1.3694278486       -7.0980364630        0.4667339065
 C         -4.8306337182        3.7591817187        4.5139562270
 C         -5.3096464127        3.7477723197        3.0658353073
 C         -3.1704058571        5.6759194821       -4.2120750073
 C         -3.1679279669        5.1486538806       -5.6433987659
 C          7.5311634057       -1.0187026730       -1.2039180608
 C          7.5224512870       -1.4269929322       -2.6734816605
 C          2.1949734744       -5.6480869819        2.3329296233
 C          0.2689609247       -6.0864978215        0.1704651296
 C         -3.7311191214        2.7228912694        4.7176341696
 C         -4.1455612688        4.0110572123        2.1172063713
 C         -3.4744640890        4.5502453087       -3.2298188567
 C         -2.1537270867        4.0205369890       -5.7946151211
 C          6.5200753515        0.0941105795       -0.9557661128
 C          6.1257364251       -1.8719997854       -3.0914353137
 C          0.3099195800       -0.1284206938        3.4497100468
 C         -1.1073448534       -0.5608650725       -1.1477621062
 C          0.9934827831        1.5445947677        0.2326375822
 C          0.6294748097        0.0189234537       -4.3507305538
 C          2.5865611996       -0.7007703668        2.9057714358
 C         -2.5927652154       -2.0103541851        0.0716313950
 C          1.9945024005        1.5918166717        3.3861204927
 C         -3.4045580155        0.0847090046       -0.8235028969
 C          0.3738469112        3.8397137628       -0.1531811272
 C         -1.0882529991       -1.6682180177       -4.2835165244
 C          2.4826793955        2.9951063409       -0.9813510031
 C          1.1992392616       -2.2463306821       -3.7630863302
 C          0.8368370341       -2.4622478059        2.8820676857
 C         -0.2349972978       -2.6937592729       -0.2704810319
 C         -0.3499202325        2.2389175757        3.7646416885
 C         -1.8764771369        1.5773693060       -2.0847713449
 C         -1.1620041582        2.3493580613        1.0999065732
 C         -1.7286465857        0.6709608017       -4.7202969120
 C          3.1377438570        0.6384814223       -0.5812595864
 C          2.9593644844       -0.5010073232       -3.7399317781
 C          1.2569916301       -1.0839425372        3.0990714394
 C         -1.3259716953       -1.7460365360       -0.4521863347
 C          0.6651048298        1.2137550743        3.5746295010
 C         -2.1369209894        0.3579542956       -1.3358598366
 C          0.0789029559        2.5847603391        0.3781574834
 C         -0.7099269795       -0.3422019239       -4.4893884751
 C          2.1958824566        1.7406256866       -0.4400192095
 C          1.5831174982       -0.9190838474       -3.9727785067
 C          2.9314708264        0.6260753019        3.0651630840
 C         -3.6050491479       -1.0906539173       -0.1234407063
 C          1.5668326515        4.0183167892       -0.8289761832
 C         -0.1244829467       -2.5972501983       -3.9332891596
 C          1.0984167626       -4.6226307828        2.0467780657
 C          0.7082490674       -4.6702626371        0.5468936464
 C         -2.5483966277        2.9911856162        3.7908075664
 C         -3.0406111265        2.9762620380        2.3057241587
 C         -2.4566356778        3.4220664304       -3.3619024870
 C         -2.4559922951        2.8777808391       -4.8287646254
 C          5.1111681738       -0.3438076608       -1.3613283008
 C          5.1022493270       -0.7623147900       -2.8540874441
 Br         4.7475147779        1.1560877183        2.7970935742
 Br        -5.3357507163       -1.4463240580        0.6026328538
 Br         1.9526784617        5.7303928360       -1.5841537517
 Br        -0.6530169574       -4.4099517410       -3.6432521978
 N          1.5923926606       -3.3065917104        2.3216075883
 N         -0.3888959071       -3.7764457715        0.3572953977
 N         -1.5771457891        1.9543024472        3.8893935746
 N         -2.8001805808        2.3327293163       -2.5048683133
 N         -1.9193200133        3.2891205836        1.4788785821
 N         -1.4307369793        1.8912442434       -4.8762746528
 N          4.2200756571        0.7627958880       -1.2165388519
 N          3.7904262913       -1.2499068161       -3.1545412432
 H          0.8876474388       -7.3418798427        2.5494778386
 H          2.5559198900       -7.7592153406        2.1449090777
 H          1.0230572667       -8.0973279398        0.1984419405
 H          2.2463492011       -6.8703752389       -0.1432244653
 H         -4.4464812353        4.7508971074        4.7635648448
 H         -5.6632613622        3.5413662340        5.1847196046
 H         -5.7515818864        2.7755198788        2.8364930139
 H         -6.0767879501        4.5098010771        2.9198281130
 H         -2.1928601848        6.1048873971       -3.9805370875
 H         -3.9180142237        6.4634965326       -4.1054507421
 H         -2.9206068191        5.9534567916       -6.3374933992
 H         -4.1637739571        4.7780957052       -5.8972042551
 H          8.5253019164       -0.6734072745       -0.9159672462
 H          7.2813397128       -1.8820326018       -0.5832995146
 H          8.2286973087       -2.2420026525       -2.8405447295
 H          7.8333702456       -0.5796482007       -3.2886280436
 H          2.4422433043       -5.6067838439        3.3958146367
 H          3.0856427044       -5.3652079062        1.7691993367
 H          0.0104382129       -6.1013462145       -0.8900074258
 H         -0.6303746112       -6.3279965441        0.7390182015
 H         -4.1138447237        1.7229120052        4.5087010492
 H         -3.3756233384        2.7416724651        5.7499031510
 H         -3.7252743891        5.0019836774        2.2964724959
 H         -4.4834836646        3.9702729452        1.0801974017
 H         -4.4696970023        4.1425559248       -3.4141914543
 H         -3.4463727298        4.9227117276       -2.2042686804
 H         -1.1463431423        4.3871221219       -5.5908569354
 H         -2.1702120506        3.6274283941       -6.8132263762
 H          6.7833513850        0.9807192581       -1.5346053152
 H          6.5081971095        0.3728727411        0.0996220661
 H          5.8214823499       -2.7492050154       -2.5178925238
 H          6.1106906859       -2.1397737766       -4.1499513025
 H         -0.7194873321       -0.4114671984        3.6034977185
 H         -0.1293026379       -0.3520583946       -1.5576479084
 H          0.7668646654        0.5764136309        0.6562576638
 H          0.9004638573        1.0506982603       -4.5127355446
 H          3.3137491271       -1.4492918231        2.6344632143
 H         -2.7507377813       -2.9290142963        0.6131614737
 H          2.2852865086        2.6275483165        3.4782766596
 H         -4.1973177065        0.7985920902       -0.9794755781
 H         -0.3376716237        4.6403773598       -0.0304673819
 H         -2.1218517376       -1.9628724295       -4.3857389917
 H          3.4154967816        3.1371507798       -1.5028084859
 H          1.9460563962       -2.9668302786       -3.4703764524
 H         -0.1804637867       -2.7030585165        3.2130524637
 H          0.7268539640       -2.4018158920       -0.7218869125
 H          0.0085878665        3.2787089344        3.7329516200
 H         -0.8138511683        1.7925676853       -2.2707718744
 H         -1.3924222065        1.2928155545        1.3011922813
 H         -2.7707234112        0.3198532204       -4.6953745526
 H          2.8404097950       -0.3046305975       -0.0957020259
 H          3.2128159236        0.5149522891       -4.0729769821
 H          0.1898477880       -4.8458556808        2.6313196916
 H          1.5914667681       -4.3679448307       -0.0433792749
 H         -2.1149446981        3.9879238231        3.9845312529
 H         -3.4170045947        1.9588136029        2.1099186415
 H         -1.4364533887        3.7890107392       -3.1620853886
 H         -3.4554188678        2.4510662943       -5.0229293425
 H          4.7880483990       -1.2128530711       -0.7612707195
 H          5.3512949710        0.1328690240       -3.4488373346
 C         -1.1569570109       -3.0083917532        6.1936659605
 C         -1.9715671539       -4.0893628442        6.9060944562
 O         -1.7923914735       -2.6208953159        4.9866119698
 C         -3.1109958932       -2.1627527339        5.2448417039
 C         -3.9251316392       -3.2425009660        5.9583243978
 O         -3.2875836166       -3.6325003089        7.1634062245
 H         -0.1702531150       -3.3817083132        5.9176972108
 H         -2.0110780713       -4.9928272237        6.2800099515
 H         -3.0659049621       -1.2598477865        5.8696351061
 H         -4.0349082596       -4.1166702284        5.3003804554
 H         -1.5350499472       -4.3289853936        7.8757614631
 H         -3.5490430127       -1.9243435234        4.2760312513
 H         -4.9080072651       -2.8651327259        6.2398579047
 H         -1.0530082745       -2.1316250885        6.8488019441