142
-211.12691689
 C          8.4494557750        0.2902344185        0.7555545535
 C          8.8217822236        0.3549463149       -0.7221345158
 C         -5.6828112565        1.6756040432        2.7612490387
 C         -5.5037898577        1.3072148210        4.2305506963
 C         -2.2013015455        5.9606887551       -4.4122739225
 C         -2.6100244186        6.0031719139       -2.9433564927
 C          3.4546109416       -7.2334627395        0.5589043591
 C          3.3955175448       -6.8658560118       -0.9202067548
 C          7.2022455828        1.1229695850        1.0257892136
 C          7.6602567515       -0.1276084486       -1.5833525954
 C         -4.4390539995        2.3820449857        2.2336673824
 C         -4.2733031752        0.4258581631        4.4125686849
 C         -0.9617353899        5.0924503973       -4.5960815966
 C         -2.8633801588        4.5939860617       -2.4196761448
 C          3.5206556229       -5.9746232627        1.4159441277
 C          2.1958899368       -5.9677976565       -1.1968550170
 C          1.3666819572        1.3584727903        1.0935091973
 C          2.2545460352        1.2755379651       -3.6343706697
 C          0.3962328937       -1.3377312316        3.4480944197
 C          0.0325953014       -0.5414278577       -1.2804993150
 C          2.7421403894        3.3028920404        0.7440063219
 C          3.1607893351       -0.9548749791       -3.5619460095
 C          0.3805194259        3.5532927396        1.1980891872
 C          0.9562236211       -0.5716905563       -4.4734688602
 C          1.7060750723        0.5023000910        4.2851101544
 C         -2.3650869624       -0.3395833497       -1.3855424062
 C          2.8011179865       -1.4505969263        3.3769056312
 C         -1.3452802646       -2.4835606741       -0.9275827462
 C          3.7729071788        1.0511704289        0.6493764482
 C          4.4720603250        0.9245828237       -2.6175016770
 C         -1.0375333808        1.5524652214        1.5689151563
 C         -0.0637128182        1.6703724762       -4.4055439271
 C         -0.7476232542        0.7177881072        4.2171320895
 C         -0.9485560483        1.6618481296       -1.7579165061
 C          1.4655024527       -3.3138997711        2.4349234227
 C          1.1210299781       -2.7081280140       -0.8311942138
 C          2.6150836482        1.9154589329        0.8334827551
 C          3.2893139627        0.4110832826       -3.2963158824
 C          0.2478304704        2.1674836463        1.2760670733
 C          1.0784129695        0.7910431114       -4.2050800079
 C          0.4617046340       -0.0666659759        4.0171942668
 C         -1.1017990964        0.2453074948       -1.4643778124
 C          1.5557811748       -2.0264495161        3.1113790135
 C         -0.0786056568       -1.9034699171       -1.0179461146
 C          1.6237326368        4.0936271108        0.9251319955
 C          2.0036065993       -1.4177652932       -4.1545355949
 C          2.8524906500       -0.2045455210        3.9678005752
 C         -2.4622467952       -1.6911906774       -1.1104310152
 C          6.0252996836        0.6401672760        0.1757726021
 C          6.4035526741        0.7030957189       -1.3266363659
 C         -3.2013749608        1.5061247794        2.3994185777
 C         -3.0161378119        1.1282893315        3.9063056655
 C         -1.2064114223        3.6723636142       -4.0923740019
 C         -1.6251780154        3.7189158283       -2.5856078781
 C          2.3198542222       -5.0668024577        1.1528237520
 C          2.2570574066       -4.6943351206       -0.3511127915
 Br         1.7954809071        5.9916858975        0.7858905085
 Br         1.8228979940       -3.2858665252       -4.5132323106
 Br         4.5538233431        0.5871837422        4.3275930003
 Br        -4.1957391412       -2.4819232203       -0.9675810334
 N          4.9144656429        1.5140233774        0.3790456919
 N          5.3087647575        0.1547960120       -2.0681849728
 N         -2.0296931188        2.2132768053        1.9920495044
 N         -0.0073304061        2.9063647460       -4.1385069202
 N         -1.8945912319        0.2525603467        3.9521841216
 N         -1.9019983770        2.3782243436       -2.1797092641
 N          2.4711541539       -3.8496957570        1.8908644306
 N          1.0636950867       -3.9383427891       -0.5595229806
 H          8.2625244256       -0.7474360678        1.0404741816
 H          9.2722707790        0.6641021919        1.3668133079
 H          9.6990625111       -0.2647349991       -0.9152706306
 H          9.0701527151        1.3842665799       -0.9902283515
 H         -5.8600112380        0.7692686625        2.1778640216
 H         -6.5493564681        2.3279045171        2.6423506343
 H         -5.3891391824        2.2176135520        4.8233647192
 H         -6.3860942852        0.7775038294        4.5932110013
 H         -3.0217413288        5.5532000350       -5.0074744771
 H         -1.9930766184        6.9698312663       -4.7713120197
 H         -3.5135878832        6.6031437945       -2.8242227880
 H         -1.8150267996        6.4702817935       -2.3576894557
 H          4.3306137540       -7.8535821553        0.7564120074
 H          2.5661234647       -7.8096015776        0.8267028735
 H          3.3183645088       -7.7683242508       -1.5285097764
 H          4.3126235948       -6.3453070847       -1.2045171013
 H          6.9204673191        1.0605063249        2.0785891815
 H          7.3886209028        2.1716286734        0.7890933236
 H          7.9149884256       -0.0563085243       -2.6427834493
 H          7.4337937999       -1.1717771553       -1.3610701249
 H         -4.2755833280        3.3173528326        2.7714029529
 H         -4.5562277274        2.6172819470        1.1743218471
 H         -4.3921122813       -0.5085514838        3.8616937246
 H         -4.1327545996        0.1804523969        5.4672585464
 H         -0.1193302353        5.5136480163       -4.0449991499
 H         -0.6842042209        5.0432993655       -5.6510462960
 H         -3.6902098497        4.1300969293       -2.9599282146
 H         -3.1258925395        4.6236306393       -1.3606828263
 H          4.4305706197       -5.4143360204        1.1943093666
 H          3.5351933477       -6.2348464737        2.4763429995
 H          1.2684168839       -6.4918111118       -0.9609556422
 H          2.1640407625       -5.6849319667       -2.2507478098
 H          1.2620807265        0.2851248487        1.1652919546
 H          2.3277187723        2.3331351936       -3.4334540770
 H         -0.5767273228       -1.7588691383        3.2476107085
 H          1.0104405601       -0.0867624582       -1.3531309672
 H          3.7126643634        3.7252983895        0.5393923440
 H          3.9685680195       -1.6176675348       -3.2959090468
 H         -0.4901350095        4.1716410272        1.3462690013
 H          0.0511784944       -0.9619215563       -4.9141403904
 H          1.7729433165        1.4861815170        4.7245237508
 H         -3.2372374342        0.2765127690       -1.5344131235
 H          3.6949039423       -1.9924672173        3.1121330068
 H         -1.4217356461       -3.5388478761       -0.7208078914
 H          3.5832698055       -0.0279055743        0.7651106132
 H          4.5678251808        2.0187554400       -2.5868982852
 H         -1.0833348649        0.4654160240        1.4071525647
 H         -0.9893377305        1.1859018036       -4.7495070863
 H         -0.5987196655        1.7524076491        4.5594271322
 H          0.0616616674        2.0660794915       -1.5969107243
 H          0.4651364680       -3.7672271834        2.4023549883
 H          2.0758363774       -2.1704553308       -0.9451520307
 H          5.7746979678       -0.4071903850        0.4204706779
 H          6.5771454828        1.7630334252       -1.5783981178
 H         -3.3149563071        0.5578081904        1.8488264796
 H         -2.8372495600        2.0652966051        4.4618167633
 H         -2.0301213790        3.1927738689       -4.6492745378
 H         -0.7692315014        4.1412307421       -2.0339205956
 H          1.3773532381       -5.5821910737        1.4039239718
 H          3.1618019216       -4.1101144322       -0.5955414346
 C        -12.0241466501       -1.9860876819        1.5121843004
 C        -12.1332198298       -3.4421764295        1.0553604757
 O        -13.0886782838       -1.2151685527        0.9798405404
 C        -14.3403256536       -1.7640996954        1.3564431599
 C        -14.4489799403       -3.2201587094        0.8990703149
 O        -13.3852905787       -3.9905760258        1.4328996924
 H        -11.1042427751       -1.5307751434        1.1453468732
 H        -12.0238429007       -3.4940080027       -0.0375056237
 H        -14.4500531221       -1.7131517632        2.4494738213
 H        -14.4191803157       -3.2638009504       -0.1993110967
 H        -11.3727725710       -4.0590641089        1.5342569424
 H        -15.1006902386       -1.1471247498        0.8773491793
 H        -15.3693121062       -3.6760813863        1.2643910958
 H        -12.0528324533       -1.9421599201        2.6105892643