142
-211.12901310
 C         -0.4468896025       -6.6854237513        2.1341324524
 C         -1.0930058433       -6.5604097309        0.7583664256
 C         -2.7426404841        5.4834903843        5.7328376258
 C         -3.5017330657        5.6663955254        4.4225054891
 C         -2.3813714345        7.1679715562       -3.2245186812
 C         -2.8081304964        6.7250499212       -4.6203608756
 C          6.2254904685       -2.4805873093       -2.2444039663
 C          5.8123395169       -2.8177215201       -3.6734106342
 C          0.4747024253       -5.4994802749        2.3926269840
 C         -1.8646202320       -5.2506479473        0.6480696165
 C         -1.9751881678        4.1662930245        5.7245311685
 C         -2.5418078965        5.6170344285        3.2390921560
 C         -2.8113732881        6.1396134122       -2.1843546558
 C         -2.2203887141        5.3572024353       -4.9485120901
 C          5.6548554323       -1.1294865081       -1.8307152062
 C          4.2932398703       -2.8182534063       -3.7994876202
 C          0.6319351532        0.2955922509        3.7081818665
 C         -1.7343778236        0.4734995366       -0.5126437549
 C          1.1359113330        1.8307941067        0.3779397985
 C         -0.5314195926        0.6544921691       -4.0083942737
 C          2.4639671510       -0.9444122849        2.7559558995
 C         -3.3349896024       -0.5138172580        0.9899764579
 C          2.7271941551        1.4011800475        3.2729430700
 C         -3.6269350046        1.7635830931        0.2319911739
 C          1.1568045026        4.2196132066        0.0728299408
 C         -2.6266322402       -0.4520566492       -3.5757737985
 C          2.7162870458        2.8261195897       -1.1408267695
 C         -0.5584324934       -1.6987528198       -3.4959247297
 C          0.2864672267       -2.0720388782        3.1177774087
 C         -1.3996958698       -1.8574518275        0.2211216350
 C          0.8201855732        2.7334795441        4.0864556423
 C         -1.9857499842        2.7811809492       -1.3237595186
 C         -0.4653720996        3.1985196451        1.6467780209
 C         -2.6142609598        1.9873567318       -3.9246894261
 C          2.7165966177        0.3678609096       -0.8223954155
 C          1.6108080942       -0.5522597849       -3.8513419675
 C          1.1439061807       -0.8977129910        3.2122589484
 C         -2.1675418174       -0.6196430497        0.2316810484
 C          1.4090402521        1.4529841591        3.7241999826
 C         -2.4550737622        1.6652315462       -0.5172258772
 C          0.6167075810        3.0870230660        0.6808711875
 C         -1.9182355238        0.7103120484       -3.8773579990
 C          2.1860549759        1.6912101921       -0.5244816523
 C          0.1546250052       -0.5369349298       -3.8035243857
 C          3.2323933376        0.2007451694        2.8057547470
 C         -4.0396878429        0.6745203213        0.9772497608
 C          2.1905113834        4.0661048284       -0.8326027676
 C         -1.9337313460       -1.6367260387       -3.3996094926
 C         -0.2899392060       -4.1795573818        2.2984634947
 C         -0.9514453862       -4.0496803637        0.9022916040
 C         -0.9954553007        4.1102308365        4.5553016018
 C         -1.7752165865        4.2986551169        3.2121996540
 C         -2.2192249983        4.7686280175       -2.4947090236
 C         -2.6590848372        4.3127309695       -3.9254451144
 C          4.1289693393       -1.1201873533       -1.9433235183
 C          3.7088491064       -1.4653805612       -3.3952739247
 Br         5.0359500438        0.1408080058        2.1785327427
 Br        -5.6292718803        0.8232342848        2.0272047212
 Br         2.9062940183        5.6173507115       -1.6884234537
 Br        -2.9108879053       -3.2226186928       -2.9743278359
 N          0.6218630541       -3.0861378193        2.4445258194
 N         -1.7398860542       -2.8589741509        0.9078726322
 N         -0.3821690523        2.8282506467        4.4702894247
 N         -2.7027302309        3.7938216120       -1.5702336910
 N         -0.8109412684        4.3021777035        2.1590511569
 N         -2.0021706850        3.0709983277       -4.1556409963
 N          3.6487207135        0.1932571129       -1.6537943837
 N          2.2793282605       -1.5342185139       -3.4234113879
 H         -1.2253574642       -6.7131770684        2.8999304055
 H          0.1246109241       -7.6123959172        2.1981874008
 H         -1.7743122478       -7.3951684656        0.5874532843
 H         -0.3195202341       -6.5937086097       -0.0119054112
 H         -2.0421997359        6.3110252354        5.8671079492
 H         -3.4393354532        5.4917882654        6.5725848451
 H         -4.2458592567        4.8734003404        4.3192181915
 H         -4.0265794990        6.6230135478        4.4251444569
 H         -1.2953475776        7.2815161259       -3.1949317758
 H         -2.8280419957        8.1345879078       -2.9863322815
 H         -2.4718905433        7.4514081582       -5.3619502111
 H         -3.8982543914        6.6729417131       -4.6689774070
 H          7.3132779459       -2.4519200777       -2.1649399994
 H          5.8582421388       -3.2534345150       -1.5656759233
 H          6.2008175394       -3.7979174147       -3.9549259513
 H          6.2336569217       -2.0783980463       -4.3581941356
 H          0.9222281409       -5.5738486880        3.3856877932
 H          1.2828819723       -5.4828220672        1.6596377252
 H         -2.3061692306       -5.1477168465       -0.3451368226
 H         -2.6736429466       -5.2260516887        1.3797591132
 H         -2.6659572274        3.3261360884        5.6366560144
 H         -1.4141168236        4.0461408936        6.6535961184
 H         -1.8218550883        6.4348704355        3.2985816106
 H         -3.0899359521        5.7168592562        2.3004784242
 H         -3.8987335194        6.0504310332       -2.1642152153
 H         -2.4788345757        6.4425597624       -1.1898763323
 H         -1.1301771168        5.4038022250       -4.9487024328
 H         -2.5444682583        5.0306616603       -5.9388317169
 H          6.0505700153       -0.3393064515       -2.4705939919
 H          5.9296350501       -0.8970948668       -0.8000934175
 H          3.8611111233       -3.5860354405       -3.1554775778
 H          3.9951663143       -3.0338228243       -4.8276114535
 H         -0.3860316445        0.3581105283        4.0604087526
 H         -0.8326386135        0.3969747676       -1.1035911882
 H          0.7223563622        0.9560603434        0.8595680832
 H         -0.0025919724        1.5658840983       -4.2406223614
 H          2.8520965967       -1.8746604230        2.3731433727
 H         -3.6617559636       -1.3649875814        1.5652898119
 H          3.3411405875        2.2892381692        3.2783831857
 H         -4.1810111326        2.6883432238        0.2178501674
 H          0.7522672298        5.1884547475        0.3178246574
 H         -3.7007065631       -0.4244474293       -3.4700541817
 H          3.5280525615        2.7085652210       -1.8404357835
 H         -0.0177698740       -2.6181409318       -3.3379806756
 H         -0.6783674140       -2.0021795220        3.6389934107
 H         -0.5079632548       -1.8575700559       -0.4258829149
 H          1.4652457232        3.6145189434        3.9542085845
 H         -0.9631092384        2.6774088326       -1.7155097358
 H         -0.9554422613        2.2499393619        1.9115455770
 H         -3.6890621142        1.9584763178       -3.6928502443
 H          2.2514963513       -0.4647071171       -0.2707577191
 H          2.0847895138        0.3557216969       -4.2491920074
 H         -1.0965783490       -4.1413466433        3.0502146625
 H         -0.1472434450       -4.0069394863        0.1466706334
 H         -0.2532500795        4.9245694789        4.6234956103
 H         -2.4665469084        3.4441216463        3.1270310061
 H         -1.1175882381        4.8092633999       -2.5022381068
 H         -3.7580028538        4.2081845432       -3.9152180908
 H          3.6864098977       -1.8767167370       -1.2714337629
 H          4.0918085827       -0.6631889770       -4.0486262358
 C          0.4014191190      -10.8526454235        1.5947631513
 C          1.1839532023      -12.1516623069        1.7941995047
 O          1.2306420209       -9.7289426528        1.8412888994
 C          2.3729196085       -9.7562991625        1.0015494216
 C          3.1546525406      -11.0559916243        1.2002482639
 O          2.3257049120      -12.1794787309        0.9539090595
 H         -0.4253613189      -10.7829673863        2.3016398482
 H          1.4988634082      -12.2342323693        2.8445904988
 H          2.0576081009       -9.6729786521       -0.0484150282
 H          3.5380624238      -11.1010073459        2.2299721057
 H          0.5809696394      -13.0167644878        1.5181454777
 H          2.9768452710       -8.8924010300        1.2793978532
 H          3.9811538759      -11.1261344927        0.4929665689
 H          0.0193256460      -10.8068932090        0.5649118746