142
-211.12867229
 C          5.3874560277       -5.8196890840        3.4395386892
 C          4.6970821143       -6.4320629497        2.2250197780
 C         -3.9610435744        2.7204966574        5.8862692125
 C         -4.7508065748        2.1090671831        4.7332890922
 C         -5.2831798739        2.3311667682       -3.1584816468
 C         -5.4748955721        1.4108060322       -4.3592040113
 C          7.4151189980        0.4288654884       -2.6321227467
 C          7.2226695598       -0.4087011782       -3.8921960786
 C          5.3453682564       -4.2978853288        3.3624630965
 C          3.2581558681       -5.9399511059        2.1262157928
 C         -2.5281146134        2.1998003494        5.8878453178
 C         -4.0709692993        2.4111385500        3.4025674144
 C         -4.9097206504        1.5181930964       -1.9245689643
 C         -4.2052029515        0.6087486368       -4.6224119808
 C          6.1391989941        1.1945946551       -2.3037949125
 C          6.0533348862       -1.3708020253       -3.7165084167
 C          1.8149431257        0.4590590410        3.9040156333
 C         -0.3916143461       -1.8043321799        0.2219552153
 C          0.9592422718        1.1681216166        0.3699460504
 C          0.1262721650       -1.7504323871       -3.4341790651
 C          3.9409543162        0.4500780102        2.7719894032
 C         -0.8794683851       -3.1745909002        2.1398266202
 C          2.6599504073        2.4927777383        2.9284089534
 C         -2.6111606819       -1.8026068882        1.1565026034
 C         -0.6009295939        2.8923914261       -0.2562076962
 C         -0.7482238815       -3.7606942070       -2.4371530640
 C          1.3918745781        2.5198819031       -1.5743704391
 C          1.6398488973       -3.4344505010       -2.6139380457
 C          3.0417402110       -1.6677790321        3.6938877876
 C          1.4058128214       -3.1938524975        1.1783201234
 C          0.4078907310        2.4945072001        3.9290092758
 C         -2.1102833380       -0.3913904545       -0.8214265872
 C         -1.0484977028        1.5019980524        1.7482303037
 C         -2.3136895941       -1.9750268759       -3.1020480666
 C          3.0128279318        0.7576158455       -0.9294997262
 C          2.5487764799       -1.3246635328       -3.5496141156
 C          2.9406365795       -0.2315357499        3.4703409085
 C          0.0279422578       -2.7218575176        1.1803588951
 C          1.6573627828        1.8150676060        3.6208645493
 C         -1.7040450589       -1.3387794743        0.2045000667
 C         -0.2270342537        1.8593438715        0.6022001828
 C         -0.9652924167       -2.5181585601       -3.0309409961
 C          1.7758695194        1.4940870551       -0.7087011670
 C          1.4261396816       -2.1906191979       -3.2138290582
 C          3.7870625279        1.7990001890        2.5248042452
 C         -2.1792192104       -2.7065281034        2.1095987406
 C          0.2112984497        3.1960481150       -1.3331863751
 C          0.5505884443       -4.1993966764       -2.2489818204
 C          3.9055128630       -3.7937461159        3.2732560404
 C          3.2055319478       -4.4133630325        2.0366361135
 C         -1.8297612255        2.5101294893        4.5662526107
 C         -2.6420359122        1.8780038795        3.3888177335
 C         -3.6273964910        0.7288156063       -2.1662015864
 C         -3.8094259123       -0.2163651359       -3.4005462075
 C          4.9613215773        0.2372418219       -2.1108083501
 C          4.7654030005       -0.6157835140       -3.3901640747
 Br         5.1502139327        2.7318753038        1.5643733434
 Br        -3.4153276520       -3.3133427739        3.4339845466
 Br        -0.3247962326        4.5857297900       -2.5290160906
 Br         0.8399285891       -5.8974236941       -1.4221017885
 N          3.9057490812       -2.3726405136        3.1014361832
 N          1.8408579062       -3.9924530589        2.0520692401
 N         -0.5422124615        1.9039333187        4.5208946158
 N         -3.3204474264       -0.0960164905       -1.0421487066
 N         -1.9847987861        2.2384065673        2.1730780287
 N         -2.5424781804       -0.8335748824       -3.5990659827
 N          3.7691921881        0.9977543752       -1.9096636136
 N          3.7155842102       -1.5522689704       -3.1242427814
 H          4.8840735926       -6.1514491414        4.3503624533
 H          6.4256277203       -6.1525871394        3.4878690691
 H          4.7013030251       -7.5205423897        2.3002283880
 H          5.2390577957       -6.1549062520        1.3181974495
 H         -3.9519164318        3.8082494240        5.7855240812
 H         -4.4367291185        2.4738993415        6.8368347617
 H         -4.8157402460        1.0272420177        4.8697671566
 H         -5.7659181752        2.5090079826        4.7223624054
 H         -4.4849685594        3.0452426523       -3.3739968202
 H         -6.1964433708        2.8951042233       -2.9644728357
 H         -5.7221433264        1.9978811143       -5.2450188241
 H         -6.3046830079        0.7272964597       -4.1658839718
 H          8.2343193430        1.1357094516       -2.7723687503
 H          7.6728018966       -0.2237711328       -1.7951475498
 H          8.1299127479       -0.9755008174       -4.1079823919
 H          7.0268107912        0.2504529869       -4.7408350018
 H          5.8158101122       -3.8573249356        4.2439058992
 H          5.8874883921       -3.9491899922        2.4818178196
 H          2.7700502770       -6.3581597707        1.2438457500
 H          2.6901448397       -6.2516242422        3.0040814567
 H         -2.5182252940        1.1189575169        6.0375851508
 H         -1.9573656696        2.6579935777        6.6982147401
 H         -4.0410590106        3.4875555098        3.2260572464
 H         -4.6205992826        1.9493469650        2.5803827359
 H         -5.7082464093        0.8186588686       -1.6730825779
 H         -4.7559132808        2.1760269075       -1.0675374505
 H         -3.3792388710        1.2789841389       -4.8662048935
 H         -4.3496170630       -0.0696279069       -5.4659548275
 H          5.8924974234        1.8839412329       -3.1127302386
 H          6.2671298739        1.7790971690       -1.3907422195
 H          6.2579698492       -2.0696584823       -2.9036821007
 H          5.8960316439       -1.9509893516       -4.6281131018
 H          1.0265956821       -0.0465534391        4.4397932556
 H          0.3055468115       -1.4526536811       -0.5253722539
 H          1.2509434726        0.3745214396        1.0431575428
 H         -0.0642628568       -0.7911047878       -3.8898048759
 H          4.8103536242       -0.0942031538        2.4396249526
 H         -0.5456233110       -3.8837392623        2.8800389551
 H          2.5519334112        3.5426130793        2.7008921253
 H         -3.6265412029       -1.4409660681        1.1314246697
 H         -1.5181004558        3.4256320513       -0.0650715137
 H         -1.5831168382       -4.3661801427       -2.1178542149
 H          2.0283153111        2.7630064162       -2.4099130228
 H          2.6512231144       -3.7684239418       -2.4461775013
 H          2.2991700398       -2.0977741963        4.3801252552
 H          2.0380065354       -2.8059495357        0.3636715146
 H          0.3212025337        3.5297926302        3.5677421890
 H         -1.2855303368        0.0483277322       -1.4018026368
 H         -0.7906111186        0.5461141430        2.2276347521
 H         -3.1056581847       -2.5878359649       -2.6472714757
 H          3.2413069881       -0.0189186532       -0.1820668926
 H          2.3052963762       -0.4440860600       -4.1602120814
 H          3.3295655756       -4.0966319539        4.1640726003
 H          3.7335059499       -4.0604724985        1.1330378151
 H         -1.7846161286        3.5989643097        4.3900302031
 H         -2.6290649360        0.7873054526        3.5479617413
 H         -2.7921081023        1.4059702725       -2.4102372024
 H         -4.5965235334       -0.9464459396       -3.1441347998
 H          5.1564178562       -0.4501146694       -1.2686247684
 H          4.4988054037        0.0740231482       -4.2088622856
 C         -6.6858988061        6.0006858767       -3.1036462928
 C         -7.4084007292        7.3429056390       -2.9779023765
 O         -7.6164163013        4.9299116173       -3.0846774548
 C         -8.5728014097        5.0813318592       -4.1199593947
 C         -9.2952145804        6.4239760158       -3.9928040768
 O         -8.3650937354        7.4934431218       -4.0137635503
 H         -6.0156096640        5.8377773219       -2.2599796702
 H         -7.9123805848        7.4005152816       -2.0021349312
 H         -8.0691011624        5.0261153651       -5.0956832775
 H         -9.8622539543        6.4486454518       -3.0508612322
 H         -6.7094491984        8.1725429343       -3.0847108619
 H         -9.2716490402        4.2514086083       -4.0142689675
 H         -9.9673748403        6.5870022777       -4.8353598068
 H         -6.1173784568        5.9754589726       -4.0440959821