142
-211.13015123
 C          3.9959132415       -6.4548366334        2.9181694930
 C          3.4170744126       -6.7843958154        1.5460947482
 C         -3.9431526367        3.3984077917        5.6954003338
 C         -4.7533506785        2.9954246519        4.4679930370
 C         -4.3177618606        3.9739499252       -3.8890100027
 C         -4.4619069075        3.2086692427       -5.2004214567
 C          7.6565269965       -0.0838584968       -1.8596429124
 C          7.5453671248       -0.7515533635       -3.2265303283
 C          4.2020060753       -4.9511886767        3.0591694018
 C          2.1037649318       -6.0419902204        1.3313583851
 C         -2.6333957883        2.6204331175        5.7440278854
 C         -3.9511031084        3.2246762162        3.1921635607
 C         -4.2478178680        3.0021755909       -2.7163813944
 C         -3.3037857593        2.2336124608       -5.3794778923
 C          6.4605276860        0.8278912607       -1.6128519084
 C          6.2421767647       -1.5357876064       -3.3299026848
 C          1.4770617916        0.2628501414        3.8612545807
 C         -0.5928705373       -1.1896388527       -0.4321466852
 C          1.0509274928        1.3574241703        0.4327904111
 C          0.3569932779       -0.9572992344       -3.9264733487
 C          3.6965439698       -0.0053556077        2.9648139452
 C         -1.5293662772       -2.6748807741        1.2147868373
 C          2.7666379952        2.2052770455        3.2563932688
 C         -2.8980660588       -0.9474465231        0.2196472051
 C         -0.1728078698        3.3360634090       -0.1869058787
 C         -0.9693191416       -2.8646049247       -3.2925793549
 C          1.8700328465        2.7584041243       -1.3451604515
 C          1.4400529774       -2.9522034246       -3.1223721352
 C          2.3429419222       -2.0146035201        3.4837426400
 C          0.8411896632       -2.9424639633        0.5474842254
 C          0.4413241636        2.5051360840        4.0140803964
 C         -1.9380816238        0.5729494247       -1.4911219938
 C         -1.0095832693        1.9064422117        1.6594733455
 C         -2.1063620591       -0.7710654251       -3.9343114216
 C          3.1551843672        0.7399285286       -0.6951393330
 C          2.8020224750       -0.9491431100       -3.6624929003
 C          2.5150334371       -0.5678934463        3.4551973261
 C         -0.4425051522       -2.2616355131        0.4422078232
 C          1.5860348928        1.6480586510        3.7454605875
 C         -1.8123371724       -0.5259059835       -0.5466609912
 C         -0.0406141303        2.2029196255        0.6144781069
 C         -0.8918823019       -1.5530075314       -3.7583383150
 C          2.0140829105        1.6312790365       -0.5342037761
 C          1.5210580264       -1.6388508352       -3.5922370405
 C          3.8044238638        1.3681373964        2.8872399195
 C         -2.7339672370       -2.0109500191        1.0877203699
 C          0.7783293724        3.5846355918       -1.1592222500
 C          0.1993127894       -3.5430257408       -2.9944979101
 C          2.8896586549       -4.1952593193        2.8523895547
 C          2.2997043091       -4.5294015502        1.4589844728
 C         -1.8079030496        2.8657919186        4.4837746204
 C         -2.6368495090        2.4507252421        3.2239763809
 C         -3.0748915718        2.0409031745       -2.8750626099
 C         -3.2282999483        1.2485483382       -4.2154291238
 C          5.1491815652        0.0433570768       -1.6987707839
 C          5.0377409277       -0.6261412346       -3.0917086770
 Br         5.4187946099        2.1402003649        2.2192084144
 Br        -4.2212907097       -2.5752986906        2.1467074016
 Br         0.5704326298        5.1142385814       -2.2840157445
 Br         0.0844062018       -5.3364024037       -2.3465582584
 N          3.1427519488       -2.7870251882        2.8858038042
 N          1.0271330675       -3.8886250869        1.3602396231
 N         -0.6437323562        2.0458997249        4.4750682494
 N         -3.0503917266        1.0842367244       -1.8134637660
 N         -1.8390888335        2.7631395459        2.0801753303
 N         -2.0663115217        0.4338129509       -4.3199376481
 N          4.0519069415        0.9475028041       -1.5575302060
 N          3.8356263755       -1.4035187040       -3.0976253205
 H          3.3117640038       -6.8027709621        3.6953193073
 H          4.9500588743       -6.9664647316        3.0552836434
 H          3.2420767492       -7.8579520234        1.4604193974
 H          4.1294025761       -6.4959739397        0.7700052985
 H         -3.7283164637        4.4688684183        5.6564237487
 H         -4.5160946523        3.2023009836        6.6031307413
 H         -5.0238465299        1.9400144728        4.5379227092
 H         -5.6776095331        3.5723431663        4.4206919001
 H         -3.4089155291        4.5790461153       -3.9164105258
 H         -5.1670696838        4.6456425437       -3.7542558135
 H         -4.4811955548        3.9057627242       -6.0396152669
 H         -5.4047860834        2.6568817939       -5.1971711957
 H          8.5745780808        0.5028596529       -1.8019004094
 H          7.6964404619       -0.8489944297       -1.0812914403
 H          8.3889666934       -1.4256582856       -3.3841693397
 H          7.5729645122        0.0115620212       -4.0075505332
 H          4.5909088971       -4.7100385956        4.0506625604
 H          4.9227458981       -4.5978702454        2.3197426111
 H          1.6984147665       -6.2595559671        0.3414917479
 H          1.3664612918       -6.3554959479        2.0720197573
 H         -2.8310563589        1.5505080718        5.8258244736
 H         -2.0412385699        2.9221249870        6.6106617668
 H         -3.7241520661        4.2851644173        3.0704453299
 H         -4.5326804099        2.8977738491        2.3289626335
 H         -5.1687621661        2.4196447508       -2.6611189244
 H         -4.1251371086        3.5462907788       -1.7774530470
 H         -2.3580887902        2.7753967575       -5.4343043678
 H         -3.4227768562        1.6672860898       -6.3054533193
 H          6.4328712684        1.6262176443       -2.3560804977
 H          6.5295124094        1.2893485811       -0.6261986132
 H          6.2225857610       -2.3361328181       -2.5882524885
 H          6.1470185170       -1.9899252180       -4.3183802878
 H          0.5549951243       -0.1477342601        4.2425966006
 H          0.2437146017       -0.8721580088       -1.0381028535
 H          1.1565422573        0.4845563610        1.0611382656
 H          0.3936720267        0.0589277876       -4.2870475813
 H          4.4975037479       -0.6576552674        2.6558749951
 H         -1.4043955714       -3.5077974456        1.8877366497
 H          2.8653876173        3.2760491613        3.1601393858
 H         -3.8406122040       -0.4345290069        0.1217797068
 H         -1.0161649802        3.9898284240       -0.0339940544
 H         -1.9291658895       -3.3395109422       -3.1557732090
 H          2.6171732455        2.9607990550       -2.0955725335
 H          2.3477165558       -3.4745437586       -2.8659485063
 H          1.4582739874       -2.3815224723        4.0223837564
 H          1.6300458185       -2.5761120760       -0.1281917006
 H          0.5609582389        3.5646234766        3.7431784289
 H         -0.9891419167        0.9221943492       -1.9237988265
 H         -0.9544866140        0.8880470500        2.0722302123
 H         -3.0469343130       -1.2684081703       -3.6559711828
 H          3.1821828247       -0.1215789623       -0.0088610709
 H          2.7969124379        0.0116528574       -4.1956504764
 H          2.1434228340       -4.4944263310        3.6079757376
 H          3.0047847415       -4.1640200465        0.6914971560
 H         -1.5622560283        3.9372513998        4.3793539757
 H         -2.8209502849        1.3673822647        3.3100551867
 H         -2.1231954863        2.5931762766       -2.9422332336
 H         -4.1539874310        0.6516323574       -4.1415345293
 H          5.1251733981       -0.7519259072       -0.9327165721
 H          5.0042105702        0.1802802835       -3.8440441323
 C         -6.8069168159        0.5417884649        1.0083856669
 C         -6.4948880035        0.6257278599       -0.4869273150
 O         -6.8832000555        1.8394668955        1.5727789442
 C         -7.8742994265        2.6076542817        0.9122866085
 C         -7.5679770296        2.6991749802       -0.5835121436
 O         -7.4739216411        1.4051064740       -1.1570215887
 H         -6.0182382176        0.0191273263        1.5485640194
 H         -5.5022754685        1.0743001538       -0.6394052114
 H         -8.8596036852        2.1430548092        1.0619172609
 H         -6.6198619981        3.2352710072       -0.7285097280
 H         -6.5309259245       -0.3628432285       -0.9464574260
 H         -7.8552525604        3.5951100319        1.3734848279
 H         -8.3702946043        3.2093589568       -1.1167702691
 H         -7.7626761253        0.0188815595        1.1569802266