142
-211.12738745
 C         -2.0072078700       -4.4367369595       -4.2633745446
 C         -2.4502283926       -5.4929452999       -3.2560231266
 C          1.8005771121        7.7778322520        2.2007047064
 C          2.3399558908        8.3151581668        0.8789311558
 C         -4.6411135856        2.9569608540        6.2792930412
 C         -4.2781208141        4.0724706998        5.3042789318
 C          6.4133591645       -3.6379422368       -1.7873324916
 C          5.8408067786       -4.2584762687       -0.5170880601
 C         -2.3251081032       -3.0398401304       -3.7437017442
 C         -1.7781309698       -5.2561606351       -1.9084391901
 C          0.6260489599        6.8374113417        1.9545268822
 C          2.7578321306        7.1672332365       -0.0331326599
 C         -4.2953444417        1.5961137884        5.6853867798
 C         -2.7976133150        4.0073831981        4.9459466263
 C          5.3790717461       -2.7338026789       -2.4478486667
 C          5.3876970140       -3.1701962362        0.4486370360
 C         -0.5989360773        1.4968916077       -0.5022788822
 C         -1.6687656276       -1.7605048324        2.9030895531
 C          2.5811891832        2.4990178518       -2.0475321105
 C          1.1379939014        0.4827457608        2.0931344389
 C         -2.9210065679        1.0005623177       -0.8963487989
 C          0.1104602766       -3.2392146544        2.2324524281
 C         -2.2814807678        3.1173997187        0.0827884030
 C          0.3244057136       -1.9217433429        4.2461336241
 C          0.5729211952        2.7010761234       -3.3619696700
 C          1.7708930588        2.2889646788        3.5548626274
 C          1.8233760024        0.6337539851       -3.3697897334
 C          3.4686902818        0.9519964745        2.4695912446
 C         -1.1958275500       -0.6716209345       -1.5098805483
 C         -1.8956835988       -3.0174404439        0.7947137533
 C          0.1125292163        3.6298053816        0.4881200906
 C         -1.4002821780       -0.2754966411        4.8651370825
 C          1.2268145216        4.5644039329       -1.8887362900
 C         -0.6318425998        1.8046661223        3.1693829817
 C          3.8417676693        0.3834781105       -1.9529785376
 C          2.8290796305       -0.9154986028        0.9697512767
 C         -1.5783888466        0.6245497401       -0.9669343365
 C         -1.1504514226       -2.6827136381        2.0013645399
 C         -0.9405052488        2.7397516285        0.0251105912
 C         -0.9310275631       -1.3603605228        4.0163868264
 C          1.4886938281        3.2557772436       -2.4688191478
 C          0.7775243520        1.5317286902        2.9353469108
 C          2.7459421105        1.1876101779       -2.4781533098
 C          2.4763861980        0.1841791234        1.8572687043
 C         -3.2459330199        2.2372213303       -0.3725663871
 C          0.8178018952       -2.8572716143        3.3540622261
 C          0.7625831769        1.4031816393       -3.8023906836
 C          3.0972692674        1.9883946978        3.3044191287
 C         -1.6423845233       -2.7869982269       -2.3980406319
 C         -2.0928536813       -3.8597338104       -1.3733815619
 C          1.0366674535        5.6768262345        1.0542280912
 C          1.5855039422        6.2278829652       -0.3038282668
 C         -2.8104299902        1.5106282583        5.3424027156
 C         -2.4419757017        2.6537161855        4.3398529153
 C          4.9219909114       -1.6327713715       -1.4916666668
 C          4.3405441489       -2.2623070559       -0.1995718342
 Br        -5.0848654012        2.7449834198       -0.2625127442
 Br         2.5456545435       -3.6104837082        3.6678776529
 Br        -0.5046915139        0.6456537235       -5.0150195818
 Br         4.4558895308        3.0489964325        4.1294475825
 N         -2.0509663236       -1.5126144432       -1.8996307373
 N         -1.3578607729       -3.6359807772       -0.1656959796
 N         -0.0884071526        4.8500074800        0.7550129709
 N         -2.5147811921        0.2916084576        4.6686504702
 N          2.0101559698        5.0880237289       -1.0433157466
 N         -1.0380356106        2.5675951435        4.0930503404
 N          3.8788045094       -0.8693038950       -2.1064518290
 N          4.0281103122       -1.1966699595        0.6983666028
 H         -0.9323204610       -4.5248289720       -4.4355270173
 H         -2.5142495569       -4.5903708501       -5.2171143692
 H         -2.1909676698       -6.4889789092       -3.6186882502
 H         -3.5348257436       -5.4482819236       -3.1342976094
 H          2.5929878698        7.2386012674        2.7246618806
 H          1.4779181415        8.6040326102        2.8362208558
 H          1.5677256180        8.9089933091        0.3845309501
 H          3.1983791562        8.9634674248        1.0617389001
 H         -4.0912672961        3.0956560550        7.2130499127
 H         -5.7075397215        2.9926206236        6.5074996764
 H         -4.5023681657        5.0438991949        5.7477125162
 H         -4.8757842870        3.9702137943        4.3956691473
 H          6.7106076455       -4.4213707286       -2.4864970905
 H          7.3015762877       -3.0529421022       -1.5385006812
 H          6.5937440739       -4.8809566637       -0.0312713425
 H          4.9908740603       -4.8951619382       -0.7723505545
 H         -1.9888126196       -2.2814286051       -4.4531846478
 H         -3.4014156137       -2.9212027795       -3.6098766199
 H         -2.1165677914       -5.9940686050       -1.1781432325
 H         -0.6952598513       -5.3510295708       -2.0052930754
 H         -0.1965169547        7.3724060008        1.4772231367
 H          0.2613321802        6.4297873985        2.8990299353
 H          3.5622870005        6.5914587876        0.4273737732
 H          3.1220527826        7.5521464151       -0.9878979289
 H         -4.8708839841        1.4231481715        4.7745541036
 H         -4.5351012784        0.7993854783        6.3925782632
 H         -2.1835540640        4.1611004569        5.8347591937
 H         -2.5471505191        4.7859553338        4.2232041630
 H          4.5051249938       -3.3150951314       -2.7467294635
 H          5.7956161904       -2.2674091906       -3.3430100498
 H          6.2363150390       -2.5539588648        0.7496022361
 H          4.9569329367       -3.6119610060        1.3492015007
 H          0.4423173686        1.2125326791       -0.5571851244
 H         -2.6369991756       -1.3120771694        2.7428253201
 H          3.2766215952        2.9463658514       -1.3543377729
 H          0.3653393822       -0.1104107996        1.6248652886
 H         -3.6736196127        0.3178660238       -1.2565114118
 H          0.5038830267       -3.9536931060        1.5272967248
 H         -2.5363095444        4.0837814139        0.4871814877
 H          0.9077895107       -1.6209753285        5.1033197780
 H         -0.2789031326        3.2741112858       -3.6960962591
 H          1.4828080300        3.0951925703        4.2101052187
 H          1.9595432527       -0.3840576530       -3.6985130297
 H          4.5030566886        0.7150289048        2.2793981172
 H         -0.1121055535       -0.8648918545       -1.5551505996
 H         -2.9370133548       -2.6683257010        0.7633819693
 H          1.1058362058        3.1665688078        0.5819380890
 H         -0.7042331349        0.0560996338        5.6496067926
 H          0.2815474855        5.0415805690       -2.1863570604
 H         -1.3255684425        1.2900126547        2.4882007007
 H          4.6091194442        0.9318763085       -1.3892701634
 H          1.9796016241       -1.4823746850        0.5565042310
 H         -0.5449231309       -2.8544570741       -2.5023243084
 H         -3.1781199513       -3.7342557430       -1.2203788117
 H          1.8550530399        5.0968003629        1.5116068497
 H          0.7578760027        6.7632801284       -0.8007920372
 H         -2.1891276112        1.6498307496        6.2442098152
 H         -3.0262298729        2.4686887164        3.4234301413
 H          5.7722606350       -0.9959964073       -1.1939046951
 H          3.4426903553       -2.8425799750       -0.4768507538
 C         -4.3309894036       -8.0924384046       -7.3758382843
 C         -5.8084215026       -8.4317765876       -7.5833330650
 O         -3.5259641184       -9.2488222019       -7.5347644400
 C         -3.7305748138       -9.8286400348       -8.8126527363
 C         -5.2080736536      -10.1692115158       -9.0181163833
 O         -6.0127217194       -9.0125882991       -8.8609343282
 H         -4.1535799939       -7.7352657842       -6.3616753635
 H         -6.1375134272       -9.1343830912       -6.8041252875
 H         -3.4034255202       -9.1252153801       -9.5918598425
 H         -5.5146888804      -10.9321624683       -8.2878824264
 H         -6.4227525014       -7.5317394336       -7.5563419714
 H         -3.1153667698      -10.7280484100       -8.8413498407
 H         -5.3880258639      -10.5304783813      -10.0307823120
 H         -4.0230451629       -7.3274325053       -8.1031464760