142
-211.12684609
 C          0.7243709658       -4.0892748969       -5.2890075605
 C         -0.1306792750       -5.1974905452       -4.6830281038
 C          0.9574899118        7.5366223359        3.1269669089
 C          2.0452619199        8.1510888427        2.2519906816
 C         -6.5546375737        2.5218044669        3.4110856663
 C         -5.8054289666        3.7058464235        2.8083631065
 C          7.1527941514       -3.6272108085        1.1884448091
 C          6.0560911909       -4.3175575478        1.9927904242
 C          0.2042040550       -2.7225341869       -4.8605815179
 C         -0.1450931088       -5.0841642505       -3.1630032612
 C          0.0550032150        6.6307826592        2.2967974851
 C          2.8657324107        7.0581144906        1.5765815743
 C         -5.9396086163        1.2080972261        2.9422279325
 C         -4.3280573439        3.6466975047        3.1800019389
 C          6.5409607348       -2.6812690560        0.1616049880
 C          5.1713879313       -3.2845485463        2.6799676257
 C          0.1932859484        1.4966347203       -0.8142087867
 C         -2.2661645265       -1.9565868967        1.4309208607
 C          3.7603991193        2.5301875869       -0.5423481666
 C          0.5770207082        0.3014015120        2.2835106949
 C         -1.6616025841        1.1037326995       -2.2975409093
 C         -0.3592275758       -3.4242207845        1.5334314842
 C         -1.5766059915        3.1227965138       -0.9704048267
 C         -1.1141725621       -2.2775388829        3.5218299289
 C          2.6196521274        2.8239372156       -2.6432253862
 C          0.3912125717        1.9996694588        3.9811188805
 C          3.7679077122        0.7518495830       -2.1665557279
 C          2.4321006743        0.7223741683        3.7587495043
 C          0.1587976676       -0.5712881453       -2.1588316274
 C         -1.4865751372       -3.0399940692       -0.6406737293
 C          0.3372150332        3.5371597403        0.5508338297
 C         -2.9561601886       -0.6438349300        3.4117365703
 C          2.4500770080        4.5917763036       -0.9339172323
 C         -1.5254347984        1.5630483345        2.4690943138
 C          4.8738394307        0.4074281699        0.0258905049
 C          2.6295232116       -1.0417922074        2.0292484744
 C         -0.4430253769        0.6920701243       -1.7545678949
 C         -1.3797183051       -2.8182749436        0.7954813649
 C         -0.3652285352        2.7092422806       -0.4173646922
 C         -2.1297977819       -1.6664182801        2.7877594566
 C          2.9845912293        3.3179024937       -1.3915513441
 C         -0.1673191089        1.2941273689        2.9159961946
 C          4.1409093364        1.2458943274       -0.9136819019
 C          1.8711781192        0.0049933531        2.7005463733
 C         -2.2052089900        2.3080438893       -1.8939417686
 C         -0.2530314872       -3.1515897436        2.8820690350
 C          3.0257716532        1.5530870413       -3.0103262815
 C          1.6833852738        1.7059547838        4.3759849518
 C          0.1941224457       -2.5913277137       -3.3363193469
 C         -0.6714853589       -3.7200752578       -2.7186502391
 C          0.8611946045        5.5246539236        1.6237048420
 C          1.9787422844        6.1523128161        0.7263089121
 C         -4.4641927618        1.1259572635        3.3252806815
 C         -3.6969329960        2.3411044957        2.7069649903
 C          5.6564581848       -1.6347193151        0.8380117538
 C          4.5425374400       -2.3338526669        1.6594216889
 Br        -3.8810199533        2.8630043753       -2.6258163174
 Br         1.1437383992       -3.9755385203        3.8925857840
 Br         2.5103366816        0.8784666803       -4.7220845151
 Br         2.4583431890        2.6994984028        5.8125398018
 N         -0.4041840687       -1.3445519946       -2.9807842792
 N         -0.5690956221       -3.6094402090       -1.2952185739
 N          0.0234397175        4.7424840034        0.7722345885
 N         -3.8621613798       -0.0376432807        2.7685185195
 N          2.7240853329        5.0538547621        0.2122127042
 N         -2.3407310131        2.2545419766        3.1452277182
 N          5.0152669909       -0.8334570614       -0.1600215598
 N          3.8157947073       -1.3200108051        2.3546103194
 H          1.7592365417       -4.2041145850       -4.9593142269
 H          0.7086901952       -4.1559060126       -6.3779236236
 H          0.2623054761       -6.1740804329       -4.9707344207
 H         -1.1516592198       -5.1190161883       -5.0631886381
 H          1.4198016568        6.9536410997        3.9267314306
 H          0.3583024714        8.3240693962        3.5868070940
 H          1.5856082552        8.7839561238        1.4893371057
 H          2.7032223430        8.7764587660        2.8574650380
 H         -6.5068520217        2.5765597245        4.5011117787
 H         -7.6049996386        2.5555075066        3.1174673456
 H         -6.2338421256        4.6421669871        3.1693878232
 H         -5.9069894188        3.6853083426        1.7209518216
 H          7.7673062197       -4.3701842263        0.6773020988
 H          7.7988241266       -3.0620253823        1.8639510147
 H          6.4979035172       -4.9720276302        2.7457109270
 H          5.4467407793       -4.9328725576        1.3272672992
 H          0.8283965096       -1.9280963874       -5.2740611390
 H         -0.8139008658       -2.5741495482       -5.2237386932
 H         -0.7779494427       -5.8604725191       -2.7280408825
 H          0.8634086105       -5.2098753204       -2.7654393901
 H         -0.4548027977        7.2072551672        1.5231843328
 H         -0.7046162624        6.1681872614        2.9294245356
 H          3.3680276784        6.4442146169        2.3259717461
 H          3.6303407471        7.4980804981        0.9330173166
 H         -6.0200956113        1.1181841311        1.8577002687
 H         -6.4623149561        0.3607874146        3.3907783853
 H         -4.2046745151        3.7185079067        4.2618289946
 H         -3.7875394860        4.4770493247        2.7221458696
 H          5.9304793253       -3.2399541955       -0.5498390497
 H          7.3244985122       -2.1664264498       -0.3981835381
 H          5.7578426273       -2.6922496375        3.3840338753
 H          4.3713769845       -3.7754562382        3.2373728191
 H          1.1378760240        1.1846224403       -0.3915735335
 H         -3.0581806323       -1.4717489332        0.8815052896
 H          4.0305318578        2.9312609370        0.4222116004
 H          0.1366958346       -0.2508836779        1.4654184464
 H         -2.1482164953        0.4725023717       -3.0234399058
 H          0.3239177780       -4.0905424752        1.0315014060
 H         -1.9983009395        4.0654829198       -0.6607357144
 H         -0.9954446614       -2.0624963751        4.5731377072
 H          2.0185115354        3.4217356552       -3.3116956090
 H         -0.1947490127        2.7622353640        4.4684134904
 H          4.0667052796       -0.2458415542       -2.4457118451
 H          3.4364733603        0.4884432337        4.0729420899
 H          1.1344020651       -0.8010580436       -1.7016433515
 H         -2.3980309593       -2.6527563573       -1.1167316859
 H          1.1709058949        3.0433904264        1.0714539126
 H         -2.7097663198       -0.3953913577        4.4544834577
 H          1.7539533142        5.0965687077       -1.6196950303
 H         -1.7985051963        1.1119481006        1.5037870146
 H          5.2632053692        0.9183454018        0.9173960752
 H          2.0961176798       -1.5728266621        1.2247479665
 H          1.2173110219       -2.6868730412       -2.9320027528
 H         -1.7073026880       -3.5684130826       -3.0666104085
 H          1.3734758532        4.8999848769        2.3739094551
 H          1.4773729872        6.7272958454       -0.0715596189
 H         -4.3376993110        1.1783894853        4.4206873795
 H         -3.7771324385        2.2401401841        1.6120921004
 H          6.2454242469       -1.0192929852        1.5390182485
 H          3.8994636202       -2.8911593106        0.9556020534
 C         -8.4285259942       -7.0908207284       -7.9621093754
 C         -8.4816003569       -8.5141330605       -8.5208286690
 O         -7.5568094702       -7.0260297640       -6.8457100576
 C         -6.2579106380       -7.4708151412       -7.1998987665
 C         -6.3105087307       -8.8937994136       -7.7597006163
 O         -7.1828241763       -8.9587582058       -8.8754032616
 H         -9.4083418168       -6.7758616854       -7.6029236005
 H         -8.9079572069       -9.1901535506       -7.7655176458
 H         -5.8309615102       -6.7942898941       -7.9543522747
 H         -6.6613296873       -9.5836321763       -6.9784402130
 H         -9.0770769714       -8.5531568011       -9.4330158752
 H         -5.6633528425       -7.4329117108       -6.2870111883
 H         -5.3307404773       -9.2075326295       -8.1201655115
 H         -8.0763782255       -6.4019768302       -8.7435625976