142
-211.12752638
 C         -3.2128126619       -4.7306224769       -3.1618781838
 C         -3.1975365618       -5.7849950211       -2.0598271063
 C          1.7139431914        7.9202031766        1.4419428390
 C          1.7114139477        8.4390214187        0.0075439306
 C         -2.5696815736        2.7275780158        7.5812441866
 C         -2.6585150357        3.8318842002        6.5327546878
 C          5.6344141747       -3.2689041147       -3.7100326769
 C          5.5796315304       -3.8778694902       -2.3126539552
 C         -3.4115052142       -3.3418984631       -2.5667086654
 C         -2.1028115548       -5.4755646432       -1.0450468558
 C          0.6100821777        6.8867708516        1.6362673505
 C          1.8808960379        7.2869917790       -0.9764771562
 C         -2.3293318424        1.3774140989        6.9152911965
 C         -1.3881534353        3.8707270153        5.6907320492
 C          4.3638699233       -2.4757210757       -3.9932496854
 C          5.3845810228       -2.7884198475       -1.2651449471
 C         -0.9674357352        1.3780395056       -0.1588935112
 C         -0.5605971685       -1.8526839459        3.4143568337
 C          1.4220724361        2.5371721887       -2.7284636424
 C          1.6325927819        0.5737855165        1.6836849580
 C         -3.2353045293        0.7152789324        0.3016253460
 C          0.9847160700       -3.2141997944        2.1656967744
 C         -2.4508083030        2.9023377632        0.9708704454
 C          1.7813185746       -1.8259762003        3.9760855669
 C         -0.9235710093        2.5292086044       -3.2757777313
 C          2.5578804768        2.4809881303        2.8266780585
 C          0.4230995261        0.5650685718       -3.6844136486
 C          3.9001927353        1.2474326442        1.2380424495
 C         -1.7235243827       -0.8561747177       -0.8769957046
 C         -1.4098852380       -3.1809837335        1.5219925453
 C         -0.1164215888        3.5903490731        0.4923493241
 C          0.2525814428       -0.2936100939        5.1548449440
 C          0.0314906839        4.4980665103       -2.1422374910
 C          0.2224477813        1.7857896647        3.2911416115
 C          2.8174323993        0.5307012747       -3.0430300186
 C          2.9633984205       -0.7257454631        0.0656751772
 C         -1.9807218785        0.4276502210       -0.2390234800
 C         -0.3177033342       -2.7598815091        2.3895263292
 C         -1.1928279497        2.6132344765        0.4435082360
 C          0.4840750545       -1.3660588683        4.1987723069
 C          0.1903282899        3.1895243346       -2.7588829537
 C          1.4862864207        1.6207898178        2.5902315023
 C          1.5429137126        1.2251440487       -3.1714352160
 C          2.8332776092        0.3768320838        1.0083998053
 C         -3.4451344217        1.9443474210        0.8969782888
 C          2.0055055982       -2.7481709905        2.9691374726
 C         -0.7837809830        1.2322806190       -3.7372637110
 C          3.7414584698        2.2820664580        2.1399609642
 C         -2.3132743373       -3.0153298611       -1.5528674423
 C         -2.2981459887       -4.0885686451       -0.4341581062
 C          0.7778990687        5.7214737485        0.6666289449
 C          0.7721087351        6.2518135903       -0.8054692019
 C         -1.0502305382        1.3960762094        6.0823225109
 C         -1.1460842835        2.5288043748        5.0074453936
 C          4.1613933225       -1.3744402452       -2.9533411362
 C          4.1053815321       -1.9927528026       -1.5327077435
 Br        -5.1576941395        2.3309189378        1.6512913689
 Br         3.7884195852       -3.3624534018        2.6611849363
 Br        -2.3174925255        0.3300450025       -4.4327434811
 Br         5.1968551416        3.4830612503        2.4412420451
 N         -2.6035756397       -1.7570084567       -0.9432286206
 N         -1.2006905622       -3.7872856522        0.4343315377
 N         -0.3088460362        4.8039958557        0.7926727559
 N         -0.9035413257        0.1817359116        5.3539057704
 N          1.0101477794        5.1150228400       -1.6285640278
 N          0.0908251312        2.5453748085        4.2940429468
 N          2.9097025923       -0.7203346244       -3.1870888770
 N          4.0199463451       -0.9187649594       -0.5953267309
 H         -2.2685370158       -4.7601030422       -3.7097821494
 H         -4.0186497017       -4.9365779238       -3.8674973200
 H         -3.0273352091       -6.7741462993       -2.4880607918
 H         -4.1664173966       -5.7987111384       -1.5558029775
 H          2.6813618816        7.4631259211        1.6619677534
 H          1.5653214571        8.7467174873        2.1385946993
 H          0.7679313025        8.9519477306       -0.1929437861
 H          2.5215357480        9.1566034808       -0.1316992488
 H         -1.7497810855        2.9438356230        8.2700300566
 H         -3.4940385842        2.6866138552        8.1596305282
 H         -2.8020813423        4.7980004699        7.0191523563
 H         -3.5181942173        3.6495683794        5.8839537092
 H          5.7456063920       -4.0559444966       -4.4577927184
 H          6.5002830810       -2.6073413305       -3.7851974440
 H          6.5035857663       -4.4187780941       -2.1024722160
 H          4.7525822554       -4.5889472395       -2.2558709624
 H         -3.3979643539       -2.5833817547       -3.3516449419
 H         -4.3750602745       -3.2825178869       -2.0583171699
 H         -2.1074293780       -6.2146569830       -0.2413134278
 H         -1.1231034451       -5.5060312167       -1.5248035000
 H         -0.3686505892        7.3390800720        1.4683249032
 H          0.6308250268        6.4947494754        2.6546894324
 H          2.8412383217        6.7932164045       -0.8194241056
 H          1.8553614643        7.6564276939       -2.0037277737
 H         -3.1642724713        1.1247366549        6.2597115659
 H         -2.2417011423        0.5915435195        7.6683544180
 H         -0.5240886392        4.1022988625        6.3155959408
 H         -1.4650554918        4.6413251721        4.9216070544
 H          3.4943092649       -3.1347555212       -3.9704770131
 H          4.4128022651       -2.0165207656       -4.9827495011
 H          6.2278429205       -2.0961690983       -1.2772078605
 H          5.3214467953       -3.2243383737       -0.2662914042
 H          0.0054728244        1.1617159710       -0.5769689625
 H         -1.5564718370       -1.4823763110        3.6022634308
 H          2.2707815910        3.0657018048       -2.3227950574
 H          0.8036238626       -0.0980147681        1.5115044215
 H         -4.0135396145       -0.0280091571        0.2376918878
 H          1.1640277659       -3.9174570480        1.3683029184
 H         -2.6175128306        3.8636031845        1.4296404702
 H          2.6010265136       -1.4577486810        4.5744798702
 H         -1.8844154801        3.0206938697       -3.3046885348
 H          2.4371817556        3.2852289463        3.5344537171
 H          0.5263518563       -0.4524923343       -4.0256588765
 H          4.8258078462        1.0891489595        0.7085001635
 H         -0.7133303429       -0.9828089941       -1.2979935116
 H         -2.4189333810       -2.9051272869        1.8583983618
 H          0.8802935653        3.2003359916        0.2385346161
 H          1.1475617897        0.1134664268        5.6478216981
 H         -0.9956498080        4.8893536222       -2.1014236452
 H         -0.6135102208        1.1926291893        2.8919634201
 H          3.6792353939        1.1595438306       -2.7800738736
 H          2.0794448605       -1.3767007332       -0.0274265453
 H         -1.3224442211       -3.0169501904       -2.0405436574
 H         -3.2646683272       -4.0273316506        0.0942026140
 H          1.7493360616        5.2225931283        0.8173440492
 H         -0.2190597463        6.7012490636       -0.9905043024
 H         -0.1711771866        1.6132260601        6.7137482302
 H         -1.9900350402        2.2663360565        4.3485148876
 H          5.0034233887       -0.6618855162       -2.9695686308
 H          3.2213761268       -2.6528573751       -1.4826927857
 C         -5.8794047403       -9.8314706328       -6.8187894505
 C         -5.6831248504       -9.7745689678       -8.3351846944
 O         -4.6959957799       -9.4330371605       -6.1474443550
 C         -4.3074800167       -8.1306358426       -6.5516458075
 C         -4.1108170510       -8.0737064336       -8.0677879790
 O         -5.2943126685       -8.4724318175       -8.7390852970
 H         -6.0884098717      -10.8498520476       -6.4909395189
 H         -4.9104367354      -10.4979567099       -8.6335031459
 H         -5.0815367886       -7.4084705459       -6.2549742937
 H         -3.2832202917       -8.7376186491       -8.3569142687
 H         -6.6153993036       -9.9902516503       -8.8573218565
 H         -3.3752527522       -7.9145969929       -6.0300943880
 H         -3.9025655002       -7.0551340884       -8.3955203826
 H         -6.7068560295       -9.1672198411       -6.5300800136