142
-211.13005712
 C          4.3195041738       -6.3836329589        3.0819798765
 C          3.6785764932       -6.7791467660        1.7555977470
 C         -4.0667718689        3.0982313339        5.4630641262
 C         -4.7774597162        2.7069226357        4.1711690214
 C         -4.5301600436        3.7093268215       -3.5404804892
 C         -4.7015983391        2.9211145075       -4.8344942552
 C          7.7945210831       -0.0539272623       -2.1716124087
 C          7.5892236341       -0.7327377508       -3.5219659573
 C          4.4862550897       -4.8704378657        3.1602439029
 C          2.3330759851       -6.0837733248        1.5871067167
 C         -2.7186299465        2.3934839988        5.5659590423
 C         -3.9074401575        3.0403917847        2.9646225800
 C         -4.3760547373        2.7561829647       -2.3607238647
 C         -3.5090556728        1.9982176208       -5.0563294780
 C          6.6217746030        0.8665856545       -1.8562121984
 C          6.2802802378       -1.5138882037       -3.5290101341
 C          1.5763449100        0.2693418305        3.8688997849
 C         -0.5350175865       -1.3135358221       -0.1723686630
 C          1.2441845143        1.3969354592        0.3584261282
 C          0.3576803947       -1.0201651005       -3.7331077090
 C          3.7844939026        0.0648901114        2.9289707633
 C         -1.3780330205       -2.7597798708        1.5579821479
 C          2.7686700699        2.2434745908        3.1743193809
 C         -2.8082820709       -1.0721051530        0.5822919319
 C          0.0427553017        3.4095899567       -0.1944999151
 C         -0.8679987921       -2.9706701979       -3.0302052081
 C          2.0974584490        2.8653827983       -1.3473682860
 C          1.5476661809       -2.9723137354       -2.9753802158
 C          2.5311690612       -1.9801081509        3.5564335280
 C          0.9614374175       -3.0243677841        0.7813135468
 C          0.4455032386        2.4680335105        3.9650679722
 C         -1.9451646489        0.4167133503       -1.2040069630
 C         -0.8391921279        1.8960932099        1.5620905308
 C         -2.1137407768       -0.9318196638       -3.6350118077
 C          3.3462609466        0.7998465417       -0.7824891314
 C          2.8182314359       -0.9409830154       -3.6106603367
 C          2.6408194758       -0.5298731619        3.4685130362
 C         -0.3341239815       -2.3617199079        0.7207319227
 C          1.6235665342        1.6533005592        3.7076507898
 C         -1.7644830349       -0.6636507772       -0.2467270689
 C          0.1547055275        2.2410953964        0.5580054738
 C         -0.8600677377       -1.6598579615       -3.5051952858
 C          2.2187690561        1.7008216706       -0.5870486499
 C          1.5602172079       -1.6600221661       -3.4557143661
 C          3.8309625844        1.4383664547        2.8027985994
 C         -2.5926039300       -2.1066922583        1.4737105011
 C          1.0131339061        3.6955408388       -1.1371549562
 C          0.3365121811       -3.6052094699       -2.7831975118
 C          3.1421328744       -4.1615147055        2.9994714981
 C          2.4904209743       -4.5632561455        1.6512104090
 C         -1.8296800417        2.7304938578        4.3715877835
 C         -2.5623565532        2.3266076549        3.0493784946
 C         -3.1758019926        1.8366758297       -2.5598970071
 C         -3.3425072341        1.0283287954       -3.8894067901
 C          5.3020026589        0.0924440975       -1.8502243563
 C          5.0942834228       -0.6003883626       -3.2215144029
 Br         5.3899673740        2.2533529858        2.0565851924
 Br        -4.0174926444       -2.6378550863        2.6302756119
 Br         0.8404450930        5.2819403392       -2.1880779578
 Br         0.3164331501       -5.3970790782       -2.1206027247
 N          3.3479764766       -2.7451551608        2.9717126351
 N          1.1986348855       -3.9567100391        1.5968062417
 N         -0.6311228762        1.9628079365        4.3988939573
 N         -3.0819637347        0.8886334000       -1.4964887746
 N         -1.7227815101        2.7094131625        1.9597831353
 N         -2.1467790844        0.2693032004       -4.0331266211
 N          4.2250056930        1.0110745439       -1.6619637033
 N          3.8993958231       -1.3837065783       -3.1316164087
 H          3.6886875191       -6.7229206415        3.9066080472
 H          5.2948020353       -6.8623732827        3.1845958790
 H          3.5335069587       -7.8598113650        1.7162746492
 H          4.3388080516       -6.4976827335        0.9323213684
 H         -3.9133018001        4.1796673109        5.4814310706
 H         -4.6817754287        2.8304242954        6.3236301281
 H         -4.9877788133        1.6351136834        4.1816087881
 H         -5.7280889137        3.2366304051        4.0922385697
 H         -3.6460310644        4.3471289787       -3.6149540426
 H         -5.3972083311        4.3511711500       -3.3776104130
 H         -4.7948806550        3.6035443466       -5.6809848998
 H         -5.6142174537        2.3243761837       -4.7749517560
 H          8.7174748707        0.5279191263       -2.1803597875
 H          7.8817762431       -0.8125242937       -1.3906928606
 H          8.4182670141       -1.4110306001       -3.7306186104
 H          7.5655576351        0.0235101193       -4.3097403630
 H          4.9196574482       -4.5830523553        4.1204199584
 H          5.1554053266       -4.5228470439        2.3713113193
 H          1.8828091394       -6.3477071380        0.6283293419
 H          1.6462948345       -6.3913392529        2.3771450462
 H         -2.8586014756        1.3117503302        5.5972940364
 H         -2.2010847995        2.6933763658        6.4794609491
 H         -3.7266785095        4.1151103382        2.9109245336
 H         -4.4017407294        2.7337436922        2.0415264215
 H         -5.2740354512        2.1458043399       -2.2546546201
 H         -4.2288746795        3.3168739683       -1.4356435002
 H         -2.5915483858        2.5809727020       -5.1548433169
 H         -3.6407416695        1.4186554980       -5.9724284612
 H          6.5508932310        1.6587973234       -2.6031048627
 H          6.7547125524        1.3360498549       -0.8796201514
 H          6.3088583154       -2.3052892295       -2.7780879552
 H          6.1184931552       -1.9796612558       -4.5032978443
 H          0.6799482239       -0.1671206012        4.2814189468
 H          0.2690711831       -1.0027399686       -0.8242110813
 H          1.3343770982        0.4984166417        0.9523114811
 H          0.3414245224       -0.0052701295       -4.0991562525
 H          4.6048193465       -0.5630141227        2.6201774103
 H         -1.2125624146       -3.5708923955        2.2485822652
 H          2.8197240778        3.3137126178        3.0417749297
 H         -3.7580878074       -0.5676589687        0.5138416296
 H         -0.8010323680        4.0599150784       -0.0290375343
 H         -1.8028874263       -3.4788665559       -2.8476659085
 H          2.8561775004        3.0918628675       -2.0789906195
 H          2.4851558367       -3.4608002621       -2.7631571586
 H          1.6753180550       -2.3598996954        4.1314140208
 H          1.7155328122       -2.6563528867        0.0673734583
 H          0.5307918998        3.5331681252        3.7044348980
 H         -1.0191661775        0.7899016268       -1.6660355961
 H         -0.7646091689        0.8730345206        1.9592202798
 H         -3.0184050719       -1.4690070648       -3.3146892075
 H          3.3768962660       -0.0740099628       -0.1122777978
 H          2.7566051257        0.0210072129       -4.1380886337
 H          2.4460310928       -4.4568603023        3.8027656351
 H          3.1455164570       -4.2075270767        0.8363038128
 H         -1.6303664553        3.8150094683        4.3210237620
 H         -2.7007846282        1.2336095477        3.0884290111
 H         -2.2462540142        2.4213639793       -2.6625973406
 H         -4.2357202817        0.3902599369       -3.7759243127
 H          5.3156558041       -0.6901712957       -1.0710603959
 H          5.0053311578        0.1939168574       -3.9819429752
 C         -8.9120311809        1.8906274789       -2.3748714989
 C         -9.3983633098        3.0289132047       -1.4759478776
 O         -7.6304737639        1.4435783332       -1.9649661597
 C         -7.6544843804        1.0348160698       -0.6068343020
 C         -8.1425468645        2.1736844752        0.2900498555
 O         -9.4254803795        2.6161679823       -0.1202632524
 H         -8.8047002223        2.2283611279       -3.4056821672
 H         -8.7284561839        3.8943779145       -1.5830070212
 H         -8.3213435139        0.1677642310       -0.4962827447
 H         -7.4336599400        3.0124111343        0.2399487305
 H        -10.4191385902        3.3153509449       -1.7291350959
 H         -6.6326262160        0.7525513822       -0.3555951191
 H         -8.2497306305        1.8374217200        1.3213665454
 H         -9.6247080055        1.0547100935       -2.3271858739