142
-211.12955829
 C          0.3358794063       -7.0608732543        1.5623078052
 C         -0.0714836092       -6.9876714219        0.0940264410
 C         -4.5566139187        4.4169153834        4.7400551842
 C         -5.0676104094        4.5162715481        3.3062600436
 C         -2.7472275833        6.5028650298       -3.9630747896
 C         -2.8277519512        6.0457750511       -5.4161190447
 C          6.8832483032       -1.8363456052       -1.4191935007
 C          6.7978303267       -2.1780112848       -2.9032682436
 C          0.9873083659       -5.7539447438        1.9989389233
 C         -1.0190527036       -5.8166937374       -0.1368132657
 C         -3.5950048143        3.2426205484        4.8834945917
 C         -3.9020792800        4.6597897540        2.3340072906
 C         -3.2064910371        5.3897372327       -3.0279246275
 C         -1.9878931496        4.7911926806       -5.6277080013
 C          6.0522407830       -0.5968262843       -1.1104578543
 C          5.3458934519       -2.3910213543       -3.3158847202
 C         -0.0418643829       -0.0865282594        3.4135711710
 C         -1.5953445625       -0.1006143366       -1.2071589346
 C          0.8083098717        1.5838993988        0.2356478769
 C          0.1829670813        0.3578663028       -4.4026256504
 C          2.1111274467       -0.9720278840        2.7978319020
 C         -3.2654962483       -1.3738793087       -0.0312669477
 C          1.8809153938        1.3637743634        3.3717825874
 C         -3.7702212611        0.8569664616       -0.8167460946
 C          0.5132596935        3.9566721212       -0.0527958700
 C         -1.7671484202       -1.0557723432       -4.3838400384
 C          2.4684469779        2.8569528626       -0.9552940636
 C          0.4124038363       -1.9917476044       -3.9248243259
 C          0.1240004767       -2.4534376653        2.7473191466
 C         -1.0354816891       -2.3762706788       -0.4419799467
 C         -0.3380612550        2.3359687637        3.8218099469
 C         -2.0513428156        2.1676951628       -2.0346154341
 C         -1.1954580324        2.6490746341        1.1808311331
 C         -2.0548556728        1.3696820896       -4.7081544239
 C          2.7884640863        0.4170674163       -0.6562977500
 C          2.4142951287       -0.5319941683       -3.8525622270
 C          0.7428413510       -1.1602134145        3.0092108098
 C         -1.9784438479       -1.2727938807       -0.5626243327
 C          0.5134934392        1.1820576968        3.5749277743
 C         -2.4811563306        0.9661456177       -1.3367476102
 C          0.0526101234        2.7358616409        0.4388334566
 C         -1.1965171289        0.2071470179       -4.5367128010
 C          2.0156742186        1.6350297609       -0.4544868239
 C          0.9887828596       -0.7283570463       -4.0815186833
 C          2.6554712206        0.2804633131        2.9966591167
 C         -4.1342656980       -0.3081500760       -0.1670748328
 C          1.7086650326        3.9920118895       -0.7467855447
 C         -0.9503850164       -2.1332446548       -4.0897427760
 C          0.0436892976       -4.5727511564        1.7777285963
 C         -0.3728504830       -4.4962970110        0.2868175870
 C         -2.4126763876        3.3823798826        3.9281543265
 C         -2.9404204322        3.4825168596        2.4586872441
 C         -2.3639488775        4.1331418448       -3.2212407614
 C         -2.4496628728        3.6616192785       -4.7106733340
 C          4.5896391850       -0.8048072052       -1.5085999462
 C          4.5029026988       -1.1519258902       -3.0171618998
 Br         4.5265250227        0.5387247742        2.7096539213
 Br        -5.8904176584       -0.4414988006        0.5736948569
 Br         2.3207618937        5.6609739292       -1.4473107797
 Br        -1.7419155538       -3.8582664874       -3.8706591831
 N          0.7227647903       -3.3547972828        2.0976279133
 N         -1.3309666719       -3.4450197433        0.1586243406
 N         -1.5903058778        2.2209204894        3.9662601186
 N         -2.8576986372        3.0677572694       -2.4086187332
 N         -1.8065222499        3.6696179422        1.6111757275
 N         -1.5808355434        2.5385745201       -4.8144338601
 N          3.8716754504        0.4123101962       -1.3022609098
 N          3.1298374152       -1.4238513120       -3.3168857451
 H         -0.5475417515       -7.2485241177        2.1763667303
 H          1.0347979241       -7.8846179869        1.7169090016
 H         -0.5634669273       -7.9141325113       -0.2064452956
 H          0.8186570194       -6.8623358523       -0.5263857986
 H         -4.0420558613        5.3424252586        5.0086061564
 H         -5.3942191781        4.2852876314        5.4268743925
 H         -5.6369369636        3.6172595299        3.0595657589
 H         -5.7331502882        5.3750260400        3.2054977870
 H         -1.7167954099        6.7752830312       -3.7238667053
 H         -3.3724435188        7.3845390745       -3.8136126814
 H         -2.4701783136        6.8369712249       -6.0770054629
 H         -3.8678592913        5.8342430232       -5.6747356361
 H          7.9209039253       -1.6548308454       -1.1350111380
 H          6.5142526240       -2.6777256988       -0.8285838110
 H          7.3716136410       -3.0821877987       -3.1135311510
 H          7.2265151127       -1.3624091242       -3.4898335682
 H          1.2481067018       -5.7882705337        3.0579824450
 H          1.9002624258       -5.5776417904        1.4273633595
 H         -1.2942844269       -5.7484045129       -1.1910381172
 H         -1.9343163434       -5.9510292942        0.4416805287
 H         -4.1073908158        2.3046301923        4.6635626058
 H         -3.2116645133        3.1865617874        5.9044228506
 H         -3.3508467987        5.5800897147        2.5337394382
 H         -4.2667751080        4.7008898597        1.3060819589
 H         -4.2512594409        5.1391516902       -3.2185960908
 H         -3.1197961349        5.7072945957       -1.9872512077
 H         -0.9374356680        4.9989076354       -5.4176121459
 H         -2.0643196638        4.4513783662       -6.6626268053
 H          6.4380018621        0.2639305986       -1.6588133734
 H          6.0939418141       -0.3630014240       -0.0449752677
 H          4.9191457517       -3.2364020279       -2.7734653673
 H          5.2803382626       -2.6083985113       -4.3839598794
 H         -1.1019758439       -0.2052103548        3.5755503875
 H         -0.6008968876       -0.0171934945       -1.6221791993
 H          0.4541467795        0.6411563376        0.6280308543
 H          0.6037950597        1.3440843252       -4.5230883580
 H          2.7112158412       -1.8092351992        2.4794407738
 H         -3.5526412631       -2.2844877599        0.4693173566
 H          2.3257836597        2.3399119453        3.4936341220
 H         -4.4515892116        1.6850726612       -0.9275527827
 H         -0.0762664512        4.8438007586        0.1139376062
 H         -2.8340120152       -1.1880419622       -4.4832316918
 H          3.4038387574        2.8868593141       -1.4904493094
 H          1.0455294749       -2.8282587316       -3.6759668576
 H         -0.9043564691       -2.5745150972        3.1146636082
 H         -0.0524324334       -2.2131045206       -0.9119508859
 H          0.1641789953        3.3145523849        3.8154113471
 H         -0.9700719650        2.2340809163       -2.2259331135
 H         -1.5672085311        1.6279404252        1.3515649666
 H         -3.1372582448        1.1756813532       -4.6842592746
 H          2.3631118137       -0.4941951306       -0.2065128458
 H          2.8138459687        0.4494515226       -4.1431731352
 H         -0.8760192875       -4.6948059603        2.3745560352
 H          0.5348263421       -4.2993506467       -0.3106190772
 H         -1.8430112856        4.3044280751        4.1379733300
 H         -3.4546567538        2.5313775295        2.2436326185
 H         -1.3003196787        4.3389606466       -3.0172508899
 H         -3.5018079197        3.3952182130       -4.9123272338
 H          4.1491206246       -1.6428139275       -0.9398798825
 H          4.8780126646       -0.2792255473       -3.5781627567
 C          1.6703423507       -6.7645472219        7.5841730109
 C          1.4125013276       -6.8995294989        6.0826642998
 O          3.0037523160       -6.3482383446        7.8257671215
 C          3.2736110496       -5.1248772524        7.1630950526
 C          3.0173179278       -5.2588721009        5.6612925436
 O          1.6837215206       -5.6756382675        5.4175856692
 H          1.5548711084       -7.7247787846        8.0869348035
 H          2.0530414578       -7.6910955740        5.6682168623
 H          2.6323785330       -4.3326883513        7.5765180373
 H          3.7145167018       -5.9931050797        5.2329377450
 H          0.3648002569       -7.1274933141        5.8860954360
 H          4.3208769437       -4.8952854770        7.3600851503
 H          3.1332097240       -4.2986210413        5.1589585933
 H          0.9726697743       -6.0305401688        8.0129960670