142
-211.12850013
 C          2.8436324829       -0.7976135378        8.5398773047
 C          4.0045329535        0.1669052019        8.3154172376
 C         -6.6254412615       -4.4381702532        1.2649953080
 C         -5.9154921210       -5.7027236763        0.7958141149
 C         -0.9436955129        7.8972892496       -0.9039954950
 C         -2.2767392154        7.1762719862       -1.0823872608
 C          0.5982830954       -0.4097647551       -8.9995907384
 C          1.5900976911        0.6658325583       -8.5679486239
 C          1.6036303853       -0.3322853844        7.7840334333
 C          4.3015356935        0.3118490805        6.8265848485
 C         -5.6294295036       -3.4892548623        1.9190855103
 C         -4.7965747177       -5.3469504839       -0.1747228984
 C         -0.0049228379        7.0818208150       -0.0206435214
 C         -2.0601147187        5.7818881083       -1.6607467627
 C          0.6410998612       -1.5916644288       -8.0375975091
 C          1.2936068393        1.1237878429       -7.1443533917
 C         -1.6919397765       -0.7044660998        3.1337097275
 C          2.4219369991        2.9506048775        1.8541315192
 C         -0.9390723939       -3.4394728213       -2.5945473524
 C          0.2838316633        1.1898941306       -2.1815788052
 C         -1.1831312280        1.5120649715        3.9304883016
 C          3.6869581620        0.8980592348        1.8571901779
 C         -2.9329402929        1.1860925763        2.2966005688
 C          3.1810740904        2.0077879196       -0.2273564129
 C          0.5205138502       -5.0207056081       -1.5120955050
 C          0.1274865596        0.4809093632        0.1164714774
 C          1.1512458849       -4.0452931806       -3.6291821381
 C          1.2147190691       -0.9298069107       -1.5105326021
 C          0.1810574454       -0.3911759669        4.7180224994
 C          2.8791525677        1.8318687971        4.0026704833
 C         -3.5455150218       -1.0571955746        1.5129547861
 C          1.7893551659        4.0237080277       -0.2977330662
 C         -1.6470131357       -4.5097063260       -0.4676225752
 C         -0.6527955823        2.7269790599       -0.4678432912
 C         -0.2780807173       -2.3399113645       -4.7045305992
 C          1.4181221382       -0.2533361931       -3.8595512296
 C         -0.9224595102        0.1393191499        3.9280215210
 C          3.0105965979        1.9028021275        2.5543396017
 C         -2.7010472883       -0.1890243330        2.3223781344
 C          2.4943041496        3.0053642067        0.4641295316
 C         -0.6755466432       -4.3038846343       -1.5335916107
 C         -0.1106255271        1.4396723155       -0.8698510847
 C         -0.0321923001       -3.3014524772       -3.6395970332
 C          0.9609011068        0.0180425684       -2.5031198850
 C         -2.1772539387        2.0083391701        3.1127455074
 C          3.7624988692        0.9728196374        0.4819847570
 C          1.4086526195       -4.8847231349       -2.5646570829
 C          0.7696872209       -0.6921333561       -0.2253157902
 C          1.9020094893       -0.2117350755        6.2875810456
 C          3.0606727914        0.7927045689        6.0770029237
 C         -4.4932056553       -3.1175503688        0.9544013254
 C         -3.7818375153       -4.3905189916        0.4682853298
 C          0.2233220718        5.6945261320       -0.6125801268
 C         -1.1564276490        4.9645725453       -0.7434888305
 C          0.3278801551       -1.1487296463       -6.6104039047
 C          1.3469876411       -0.0492230412       -6.1697392495
 Br        -2.5105308837        3.8914272693        3.0948095636
 Br         4.6669009165       -0.4053991902       -0.4870378624
 Br         3.0410674054       -5.8877766790       -2.5389551810
 Br         1.0867244910       -1.9988245126        1.1199414111
 N          0.7618848181        0.3054194050        5.5957524338
 N          3.3203693023        0.8562674574        4.6711794915
 N         -3.5631730920       -2.3073892498        1.6820884491
 N          1.0452760993        4.8973611419        0.2381140566
 N         -2.8204117830       -4.0495728473       -0.5377065280
 N         -0.8870297675        3.6703398088       -1.2799729664
 N          0.4921484045       -2.2345592301       -5.7029049289
 N          0.9669956799        0.3754743892       -4.8600792090
 H          3.1263140370       -1.7935827258        8.1917222498
 H          2.6150642844       -0.8648545786        9.6050605891
 H          4.8951709906       -0.1960737370        8.8312063283
 H          3.7498632109        1.1447980723        8.7306451608
 H         -7.0939985531       -3.9440028457        0.4109983103
 H         -7.4089367071       -4.6903295138        1.9818483058
 H         -5.4982036810       -6.2279596545        1.6576584039
 H         -6.6237800986       -6.3708898583        0.3027461684
 H         -0.4793731031        8.0500905001       -1.8811000945
 H         -1.1074611069        8.8770443294       -0.4523213626
 H         -2.9258228891        7.7483432271       -1.7472163790
 H         -2.7744980893        7.0920453509       -0.1135473197
 H          0.8347630827       -0.7533619095      -10.0080472488
 H         -0.4101910894        0.0100143149       -9.0140943882
 H          1.5332547125        1.5199685080       -9.2449307684
 H          2.6050419304        0.2647300826       -8.6160011820
 H          0.7840438477       -1.0408538006        7.9225675804
 H          1.2754279596        0.6405782576        8.1542424765
 H          5.1099955796        1.0282002928        6.6672019659
 H          4.6118919194       -0.6456221595        6.4052552477
 H         -5.1885718495       -3.9561250908        2.8020063062
 H         -6.1275897575       -2.5707730644        2.2379782283
 H         -5.2076301142       -4.8624880403       -1.0625015741
 H         -4.2694055663       -6.2474190477       -0.4975822774
 H         -0.4257189158        6.9682949471        0.9795453548
 H          0.9601278362        7.5838729630        0.0733327816
 H         -1.5938608157        5.8459921318       -2.6453229644
 H         -3.0167591086        5.2702569077       -1.7796053455
 H          1.6301661124       -2.0524066956       -8.0466635531
 H         -0.0862268019       -2.3503742363       -8.3337898715
 H          0.3012425888        1.5740907580       -7.0886859246
 H          2.0214854180        1.8729644311       -6.8267891618
 H         -1.5187404641       -1.7688193134        3.1278000652
 H          1.8865638107        3.7331044176        2.3689947524
 H         -1.8634360552       -2.8834005887       -2.5854870093
 H          0.0919470534        1.9241136056       -2.9465237585
 H         -0.5911070159        2.1530904538        4.5633317222
 H          4.1258486815        0.0834162916        2.4104021017
 H         -3.6948809145        1.5901041084        1.6476495582
 H          3.2409934179        2.0351212003       -1.3049854753
 H          0.7471792449       -5.6788625943       -0.6873356739
 H         -0.1741789937        0.6606116508        1.1371444151
 H          1.8421490823       -3.9398941423       -4.4500848677
 H          1.7511647453       -1.8357842412       -1.7462676758
 H          0.4868205080       -1.4184772331        4.4774415793
 H          2.3489943983        2.6727261084        4.4716935565
 H         -4.1904606945       -0.5459872969        0.7833549874
 H          1.9101489250        3.9572650586       -1.3894586636
 H         -1.3073302145       -5.1264704156        0.3765185448
 H         -0.7992755094        2.8485061685        0.6155062832
 H         -1.1599891872       -1.6963527861       -4.5715576740
 H          2.1730837142       -1.0462165752       -3.9531460333
 H          2.2100413793       -1.1927362561        5.8858012900
 H          2.7261503764        1.7686060789        6.4704645561
 H         -4.9077397670       -2.5833696592        0.0818251468
 H         -3.3079411622       -4.8778409725        1.3380949204
 H          0.6437748957        5.7682307237       -1.6304636557
 H         -1.5802721399        4.9054002606        0.2730792948
 H         -0.6812446186       -0.7048869243       -6.5494167848
 H          2.3446865007       -0.5187503887       -6.1752151574
 C         -5.0350268356        3.4929588519        0.0446525988
 C         -5.9012155897        4.2343728495       -0.9723439169
 O         -4.7953865309        2.1566216720       -0.3764789780
 C         -4.1993148716        2.1362392597       -1.6646473176
 C         -5.0704526853        2.8815967961       -2.6758550386
 O         -5.2923438026        4.2146401306       -2.2519034722
 H         -5.5430367523        3.4266506121        1.0073382017
 H         -6.8917360862        3.7601555285       -1.0292189760
 H         -3.2067442478        2.6056792209       -1.6191407295
 H         -6.0354930157        2.3657507819       -2.7866762129
 H         -6.0067661475        5.2837370007       -0.6979037083
 H         -4.0967573829        1.0856408301       -1.9379187264
 H         -4.5683515477        2.9457667154       -3.6409821177
 H         -4.0759162986        4.0152769531        0.1625259718