142
-211.13330843
 C          3.6629355131       -6.3687489824        3.3214490971
 C          2.7074841196       -6.7972815735        2.2124364255
 C         -2.9690712409        4.2796147424        6.3082893172
 C         -3.9960709145        3.8460453111        5.2670347747
 C         -5.6546008382        3.8557247116       -2.4601941630
 C         -6.1714258854        2.9288738795       -3.5557464931
 C          6.4827599795       -1.1744156031       -3.1511913075
 C          5.9157172744       -1.9371733357       -4.3439128971
 C          3.9957120506       -4.8868705327        3.1913383072
 C          1.4357795318       -5.9585064835        2.2525375610
 C         -1.7127396381        3.4216188138        6.2086740536
 C         -3.4019261072        3.9293778758        3.8654065779
 C         -5.2398458513        3.0507289256       -1.2339551501
 C         -5.1028493123        1.9078323090       -3.9305427481
 C          5.5138716957       -0.0840273190       -2.7105253676
 C          4.5611840320       -2.5397034108       -3.9900168397
 C          1.8518303456        0.6152994090        3.9020639866
 C         -1.2881986027       -1.0842580935        0.5833527703
 C          0.8256325974        1.3597274700        0.4608974381
 C         -1.1728577722       -1.3143036317       -3.0076498946
 C          3.7607910050        0.0545054382        2.5444423821
 C         -1.8320676230       -2.2198101113        2.6353819233
 C          3.0409719612        2.3530826780        2.7326947059
 C         -3.2960885180       -0.4979756254        1.7763196217
 C         -0.2457354126        3.4471906365       -0.0797272098
 C         -2.4302990716       -3.0391151169       -1.8942694852
 C          1.4385901936        2.5288031664       -1.5520812349
 C         -0.0657660260       -3.3338438270       -2.2941524719
 C          2.4853000618       -1.7532541128        3.6621598876
 C          0.2273018513       -2.8464655812        1.4062505742
 C          0.9880653468        2.9329591310        3.9655513385
 C         -2.7496077424        0.6639950997       -0.3447380220
 C         -0.8704881837        2.2500463607        2.0008729170
 C         -3.5654584905       -0.9345865577       -2.4677579480
 C          2.5478984000        0.3804636953       -1.0048204684
 C          1.2478561514       -1.5243184714       -3.3741214365
 C          2.7157607322       -0.3419751653        3.3831757450
 C         -0.9799910366       -2.0432533081        1.5437293948
 C          1.9943528738        1.9607759876        3.5661139375
 C         -2.4405085844       -0.3100552411        0.6914985508
 C         -0.0967334640        2.3549387983        0.7740241511
 C         -2.3830722265       -1.7820333443       -2.4981947857
 C          1.5954295380        1.4377287828       -0.6957340555
 C         -0.0138805218       -2.0752665529       -2.8978755958
 C          3.9101522628        1.3932626476        2.2450671050
 C         -2.9703193776       -1.4426163034        2.7319743294
 C          0.5214502049        3.5096020932       -1.2282242748
 C         -1.2741081067       -3.7938587662       -1.8109813228
 C          2.7283624503       -4.0343168298        3.2370196967
 C          1.7568356235       -4.4692094465        2.1099656005
 C         -1.0975218848        3.5115998197        4.8146525732
 C         -2.1534459546        3.0607951681        3.7515104389
 C         -4.1720798637        2.0185221437       -1.5847428313
 C         -4.6957608577        1.0752254793       -2.7181477880
 C          4.1501732950       -0.6726919588       -2.3427340649
 C          3.5741859681       -1.4597646798       -3.5482340975
 Br         5.3326105679        1.9369694717        1.0917719876
 Br        -4.1264928576       -1.6715572475        4.2354030174
 Br         0.3000494640        4.9971942981       -2.4007874727
 Br        -1.3498588135       -5.5077755896       -0.9700071563
 N          3.0651691061       -2.6625253735        3.0054905412
 N          0.5530411278       -3.7154410477        2.2602726730
 N         -0.0039835734        2.6097399371        4.6823826544
 N         -3.8916496621        1.1971691780       -0.4513253559
 N         -1.5533980178        3.2089345833        2.4642556689
 N         -3.6125726427        0.2006634035       -3.0280620405
 N          3.2479412076        0.3957697088       -2.0536952657
 N          2.3549643684       -2.0797515561       -3.1235761062
 H          3.1991417167       -6.5531982500        4.2929998886
 H          4.5828693828       -6.9535960215        3.2705751875
 H          2.4480746480       -7.8508870477        2.3266477020
 H          3.1943090195       -6.6733303617        1.2426032847
 H         -2.7064899410        5.3277020605        6.1469094556
 H         -3.3916633295        4.1883448560        7.3101365366
 H         -4.3070104444        2.8184334786        5.4684530656
 H         -4.8796902220        4.4834548090        5.3261463339
 H         -4.7952441610        4.4169309306       -2.8337857728
 H         -6.4286739141        4.5715137686       -2.1792927678
 H         -6.4438226613        3.5088971653       -4.4388180767
 H         -7.0656134152        2.4097153375       -3.2035717231
 H          7.4396664487       -0.7214851723       -3.4150316289
 H          6.6539613887       -1.8657505755       -2.3231714445
 H          6.6009531333       -2.7329453804       -4.6407242574
 H          5.8015581773       -1.2566942726       -5.1906789632
 H          4.6577281201       -4.5713530896        4.0003795131
 H          4.5053627244       -4.6956951846        2.2454251730
 H          0.7598863844       -6.2492315836        1.4461598641
 H          0.9134701676       -6.1077212454        3.1987756010
 H         -1.9504448200        2.3767326950        6.4146894844
 H         -0.9691287324        3.7488407191        6.9382785655
 H         -3.1307187605        4.9591671369        3.6273081805
 H         -4.1276069057        3.5913712032        3.1234910368
 H         -6.1003757194        2.5261114563       -0.8155927325
 H         -4.8396742112        3.7114487564       -0.4627364378
 H         -4.2198419735        2.4179403377       -4.3167688070
 H         -5.4722439356        1.2343908568       -4.7065278243
 H          5.3685182006        0.6397715341       -3.5139924144
 H          5.9071535338        0.4509878532       -1.8440585134
 H          4.6694296501       -3.2588887769       -3.1763551345
 H          4.1402060863       -3.0653512412       -4.8495377875
 H          1.0339315867        0.3329232828        4.5466725703
 H         -0.6328598544       -0.9438342429       -0.2643974530
 H          0.9492941921        0.5213627942        1.1318433972
 H         -1.1338226236       -0.3375838727       -3.4622489417
 H          4.4257809401       -0.6951912072        2.1466667965
 H         -1.5839896702       -2.9627622057        3.3761389572
 H          3.1632605929        3.3911065795        2.4622357309
 H         -4.1892387809        0.1014597072        1.8484368711
 H         -0.9590687761        4.2153242118        0.1729703588
 H         -3.3580995395       -3.4142738158       -1.4890678300
 H          2.0373283397        2.5801320968       -2.4465246313
 H          0.8383104127       -3.9161872032       -2.2157825447
 H          1.7494557743       -1.9710839036        4.4485274218
 H          0.8300471402       -2.6453330659        0.5061458668
 H          1.1109666329        3.9470588738        3.5577233221
 H         -1.9251600581        0.8934299931       -1.0357223322
 H         -0.8115008201        1.2752478080        2.5073069774
 H         -4.4089223434       -1.3238038494       -1.8784413197
 H          2.6157632223       -0.4285358679       -0.2596614744
 H          1.1670783647       -0.5857202554       -3.9359670193
 H          2.2013376453       -4.1688629633        4.1968346418
 H          2.2473236631       -4.2701426641        1.1405702965
 H         -0.8121023784        4.5509867882        4.5761112209
 H         -2.3883773890        2.0059771607        3.9693796669
 H         -3.2626455514        2.5059868097       -1.9729360433
 H         -5.5643461481        0.5282215425       -2.3123055216
 H          4.2457544764       -1.3723438959       -1.4934087119
 H          3.3998656306       -0.7331252741       -4.3597533262
 C         -1.6406380892        0.9451824507       -6.7736408863
 C         -1.4512138376        1.6504063403       -5.4303597865
 O         -0.6238470323        1.3204196927       -7.6882565458
 C          0.6586879605        1.0449729240       -7.1534449769
 C          0.8459704481        1.7596520020       -5.8145211992
 O         -0.1639459143        1.3670376633       -4.8988863837
 H         -2.5853180800        1.2342999306       -7.2335866561
 H         -1.5543887086        2.7362151777       -5.5663650483
 H          0.7729945156       -0.0405353113       -7.0131848548
 H          0.7998140671        2.8466698508       -5.9684029137
 H         -2.1766970624        1.2874342793       -4.6996921752
 H          1.3797997755        1.4017072521       -7.8890193045
 H          1.7992335372        1.4919059698       -5.3575983146
 H         -1.6174328356       -0.1442658301       -6.6236914671