142
-211.12877166
 C          1.3320998789       -6.7855611168        3.1530382181
 C          0.2873532718       -6.9704670186        2.0572518781
 C         -2.5539765974        5.1210759471        6.2709581106
 C         -3.6650255727        4.9624030587        5.2379126781
 C         -5.1705593642        5.4876478860       -2.4349200405
 C         -5.8855303773        4.7548068662       -3.5656340121
 C          5.2305332734       -2.3036673050       -3.3476071183
 C          4.4877777752       -2.9208462065       -4.5279989299
 C          1.9994500288       -5.4210213363        3.0251030979
 C         -0.7527026356       -5.8585839887        2.1217609411
 C         -1.5439990512        3.9858093693        6.1469294379
 C         -3.0817415902        4.9181224740        3.8299674220
 C         -5.0276041092        4.5807225475       -1.2177440049
 C         -5.1336660660        3.4810362055       -3.9350435917
 C          4.5475406857       -1.0149368857       -2.9069574014
 C          3.0314426572       -3.1841440940       -4.1625802067
 C          1.2172161451        0.4281370895        3.7791554387
 C         -2.2616971428       -0.4558918599        0.5245726806
 C          0.3810509031        1.4623246174        0.3482209554
 C         -2.2461550630       -0.6406581713       -3.1420362764
 C          2.9289912908       -0.5621395272        2.4040386160
 C         -3.0585086681       -1.4654934937        2.5592611292
 C          2.7833730103        1.8401251525        2.6150765675
 C         -4.0675421683        0.5738665798        1.7402098639
 C         -0.1883739940        3.7440762005       -0.1702642528
 C         -3.8361768561       -2.0133547255       -1.9629648120
 C          1.2141430186        2.4699183318       -1.6728407665
 C         -1.6220443562       -2.8568341687       -2.4342543955
 C          1.2670011437       -2.0220209034        3.5223983012
 C         -1.2080221588       -2.5418361230        1.3081919935
 C          0.9385536567        2.8854096913        3.8695773833
 C         -3.2522689630        1.6118104027       -0.3605588816
 C         -1.0449226535        2.7077748252        1.9148615613
 C         -4.4481417058        0.3058303573       -2.5216716594
 C          1.8117504520        0.1221003812       -1.1461096114
 C          0.0527470154       -1.4248315450       -3.5669698166
 C          1.8238849790       -0.7039217915        3.2475338062
 C         -2.1901407061       -1.4779725737        1.4662286441
 C          1.6773060115        1.7030502666        3.4527918302
 C         -3.1932692494        0.5711205067        0.6540541386
 C         -0.2822859209        2.6415479965        0.6781526024
 C         -3.5117474499       -0.8063725858       -2.5810550237
 C          1.1315291629        1.3679184005       -0.8197676215
 C         -1.2941173380       -1.6501592413       -3.0582609294
 C          3.3940888850        0.7042941217        2.1135564039
 C         -3.9773828989       -0.4401881020        2.6759587546
 C          0.5526919733        3.6343145084       -1.3325202408
 C         -2.8878350924       -3.0193148984       -1.9093592111
 C          0.9674713092       -4.2960075540        3.0931577785
 C         -0.0949432656       -4.4844061143        1.9799417004
 C         -0.9376076882        3.9428028532        4.7467581668
 C         -2.0801718922        3.7763296972        3.6908965734
 C         -4.2652988791        3.3080888363       -1.5721720077
 C         -5.0007707950        2.5545145419       -2.7292894509
 C          3.0885714486       -1.2705173572       -2.5222977049
 C          2.3338287922       -1.8977233146       -3.7223806007
 Br         4.9012867648        0.9014017879        0.9548845741
 Br        -5.1535985748       -0.4141391716        4.1814716921
 Br         0.6542258431        5.1373995983       -2.5078570662
 Br        -3.3365132909       -4.6655234737       -1.0500535139
 N          1.6140510786       -3.0400971032        2.8610435294
 N         -1.0873178195       -3.4717926518        2.1514936732
 N         -0.0972145776        2.8040182606        4.5927343988
 N         -4.2179725026        2.4236572131       -0.4519596789
 N         -1.4733469529        3.7954499597        2.3983260804
 N         -4.1853874670        1.4297220444       -3.0412995017
 N          2.4592467144       -0.0252977432       -2.2182522145
 N          1.0058961769       -2.2030604196       -3.2838880884
 H          0.8519807031       -6.8652787014        4.1308679787
 H          2.0896437206       -7.5681257119        3.0846413168
 H         -0.2089050812       -7.9355114921        2.1706105924
 H          0.7755877319       -6.9552709542        1.0803636845
 H         -2.0469449274        6.0764626216        6.1172632738
 H         -2.9767087131        5.1216987405        7.2768988423
 H         -4.2134406194        4.0379378841        5.4324228995
 H         -4.3676377154        5.7937066408        5.3144235959
 H         -4.1797959499        5.7997190129       -2.7728234640
 H         -5.7296402968        6.3827150640       -2.1576804000
 H         -5.9575465798        5.4003449699       -4.4424146965
 H         -6.8998183139        4.4991831583       -3.2504664328
 H          6.2632721728       -2.0894864342       -3.6256222417
 H          5.2425616270       -3.0106568022       -2.5149380883
 H          4.9635879608       -3.8583232662       -4.8202702858
 H          4.5324725637       -2.2402860710       -5.3809523306
 H          2.7274292150       -5.2753380105        3.8258510094
 H          2.5271734929       -5.3464468138        2.0727593094
 H         -1.4897281631       -5.9767111847        1.3252329375
 H         -1.2811874856       -5.8892503097        3.0757936730
 H         -2.0260993768        3.0269374044        6.3441167658
 H         -0.7368397231        4.1130912736        6.8712561909
 H         -2.5731144761        5.8554335562        3.5987827176
 H         -3.8748434272        4.7738352186        3.0941524810
 H         -6.0100296739        4.3005427486       -0.8342780004
 H         -4.4881116507        5.0960189937       -0.4210226839
 H         -4.1330246228        3.7231522402       -4.2966981909
 H         -5.6588336649        2.9451469446       -4.7284063077
 H          4.5670988427       -0.2815533661       -3.7143357043
 H          5.0646254660       -0.5825772208       -2.0484044758
 H          2.9719619190       -3.9041652403       -3.3445696320
 H          2.4913468302       -3.5989026502       -5.0163428738
 H          0.3588827957        0.3444784932        4.4276036115
 H         -1.5931867496       -0.4613180886       -0.3246159385
 H          0.3165527787        0.6135548893        1.0142316559
 H         -2.0146781818        0.3017584438       -3.6137630946
 H          3.3926829418       -1.4458830196        1.9960037518
 H         -2.9944548812       -2.2595433761        3.2856372196
 H          3.1505069920        2.8207940521        2.3523273181
 H         -4.7895389147        1.3695389457        1.8291784661
 H         -0.7008035538        4.6545687493        0.0958622087
 H         -4.8116745545       -2.1558097548       -1.5228527544
 H          1.7965920442        2.3874461680       -2.5762878774
 H         -0.8769950553       -3.6339341297       -2.3748908668
 H          0.5045284488       -2.0632616528        4.3124718989
 H         -0.5828440952       -2.4785216614        0.4031959181
 H          1.3012878757        3.8441331866        3.4707242062
 H         -2.3989698327        1.6358541131       -1.0543777947
 H         -1.2160479857        1.7400776341        2.4091348805
 H         -5.3711039813        0.1258268610       -1.9509326442
 H          1.7201897026       -0.6785115476       -0.3947393325
 H          0.1885130863       -0.5227252274       -4.1793533857
 H          0.4371791531       -4.3095041116        4.0604097140
 H          0.4146763276       -4.3984449524        1.0038396656
 H         -0.4101315837        4.8848347169        4.5165041454
 H         -2.5605884584        2.8059543599        3.8979426935
 H         -3.2552136308        3.5464782230       -1.9439348741
 H         -5.9939581911        2.2569397651       -2.3501208774
 H          3.0302290425       -1.9771433262       -1.6753507504
 H          2.3341418879       -1.1538242780       -4.5369042443
 C          9.2071496098       -3.3508748345       -3.8530338354
 C         10.7110351647       -3.2616215433       -4.1178613284
 O          8.5207718273       -2.3002097878       -4.5133457886
 C          8.7862177180       -2.3250997978       -5.9057668311
 C         10.2904657780       -2.2338813101       -6.1679345914
 O         10.9747970247       -3.2875823658       -5.5107634957
 H          8.9914418747       -3.2355457431       -2.7908486899
 H         11.1058615506       -2.3305007929       -3.6862449835
 H          8.3936804704       -3.2570563381       -6.3374634266
 H         10.6692890782       -1.2672727476       -5.8055282978
 H         11.2332709516       -4.1188201676       -3.6926633434
 H          8.2634824712       -1.4684764202       -6.3312892544
 H         10.5090063350       -2.3440474927       -7.2301802971
 H          8.8266715781       -4.3183918556       -4.2109603272