142
-211.13176969
 C          1.7056080971       -7.2467784902        1.9639902058
 C          1.3775805092       -7.3238881236        0.4765027330
 C         -5.2960676560        3.3466245403        4.3575476010
 C         -5.7889535899        3.2909509930        2.9152067250
 C         -3.6223087980        5.2300440436       -4.3820039634
 C         -3.5476405283        4.7162808395       -5.8162686473
 C          7.3604164751       -0.7031929786       -1.1089868372
 C          7.4225638977       -1.1485186266       -2.5665247821
 C          2.0836723454       -5.8213817892        2.3495509173
 C          0.2482540387       -6.3608961633        0.1310991625
 C         -4.1410079618        2.3732168970        4.5642053465
 C         -4.6504731950        3.6043895311        1.9510519324
 C         -3.8947480094        4.0801907364       -3.4188099454
 C         -2.4686815337        3.6468660386       -5.9440756028
 C          6.2675321460        0.3414358731       -0.9175251543
 C          6.0724158002       -1.6990981631       -3.0111024400
 C         -0.0337988897       -0.3320189739        3.2578633133
 C         -1.3293295096       -0.9101509830       -1.2792327214
 C          0.6223378181        1.4188374123        0.0899203457
 C          0.4987287466       -0.1856580635       -4.4472878913
 C          2.2789715905       -0.8657070472        2.8603726558
 C         -2.7864459177       -2.4343306929       -0.1176968168
 C          1.6170504372        1.4196639685        3.2810650479
 C         -3.6654513566       -0.3768873866       -1.0335864105
 C         -0.1446329474        3.6583653567       -0.3530497217
 C         -1.1112461824       -1.9766479773       -4.4102057582
 C          2.0306141007        2.9431934535       -1.1299394778
 C          1.1942073979       -2.4062610765       -3.8266787603
 C          0.5802854791       -2.6676717479        2.7699472094
 C         -0.3887523416       -3.0030931464       -0.3728515609
 C         -0.7573567562        2.0123761329        3.5640080154
 C         -2.1724096599        1.1904802514       -2.2416664494
 C         -1.5915188277        2.0960100085        0.9185440959
 C         -1.8842714699        0.3178823689       -4.8760498356
 C          2.8434416849        0.6500346385       -0.6547675905
 C          2.8396614889       -0.5511601768       -3.7756811075
 C          0.9484283641       -1.2738309378        2.9780421618
 C         -1.5157268675       -2.1072957029       -0.5945818883
 C          0.2890953988        1.0161434506        3.3983415042
 C         -2.3954859339       -0.0422598614       -1.5023078976
 C         -0.3619861389        2.3976759624        0.2012905359
 C         -0.8116328856       -0.6306267800       -4.6158027087
 C          1.8220548702        1.6843805746       -0.5633343421
 C          1.4995275970       -1.0590624914       -4.0380920676
 C          2.5868711856        0.4686592941        3.0242683467
 C         -3.8345633507       -1.5629606689       -0.3435437169
 C          1.0430538376        3.9028590280       -1.0176135181
 C         -0.1001246507       -2.8407983434       -4.0283597013
 C          0.9581682382       -4.8436219717        2.0148926479
 C          0.6168705661       -4.9236362169        0.5041314504
 C         -2.9849407935        2.6826079504        3.6166800758
 C         -3.4917017871        2.6299855532        2.1370735515
 C         -2.8119448276        3.0113779220       -3.5263683824
 C         -2.7360534539        2.4803678545       -4.9962879244
 C          4.9051916856       -0.2038587462       -1.3509367546
 C          4.9699507360       -0.6563530157       -2.8325614781
 Br         4.4036404042        1.0264122430        2.8670731210
 Br        -5.5682855708       -2.0007370254        0.3299792108
 Br         1.3192367124        5.6176735640       -1.8130039909
 Br        -0.5219623798       -4.6809974168       -3.7340035804
 N          1.3917078830       -3.5066468955        2.2877069728
 N         -0.5111706876       -4.0795332821        0.2728782494
 N         -1.9717407984        1.6865346074        3.7156728949
 N         -3.1212413928        1.8995319515       -2.6858949351
 N         -2.3936532543        2.9959983309        1.3015066014
 N         -1.6551790431        1.5546662280       -5.0179648605
 N          3.9345862405        0.8395597197       -1.2580977816
 N          3.7028990483       -1.2368342261       -3.1600125910
 H          0.8365083287       -7.5626459842        2.5453787661
 H          2.5321811371       -7.9187198558        2.2010994101
 H          1.0798739462       -8.3391276140        0.2098598731
 H          2.2646248541       -7.0684703609       -0.1072179538
 H         -4.9625381885        4.3605938910        4.5898639394
 H         -6.1090029426        3.0942320402        5.0402093450
 H         -6.1804007639        2.2936451775        2.7023710747
 H         -6.5974129998        4.0088879884        2.7685991925
 H         -2.6768777003        5.7088594509       -4.1171203239
 H         -4.4143994301        5.9751254875       -4.2925744024
 H         -3.3240931536        5.5393849881       -6.4968016078
 H         -4.5135026122        4.2939190857       -6.1030080559
 H          8.3193154490       -0.2812599002       -0.8042509591
 H          7.1540579724       -1.5655986325       -0.4714994970
 H          8.1872257270       -1.9170511306       -2.6913380342
 H          7.6932903367       -0.2979419741       -3.1960580891
 H          2.2938325651       -5.7579657504        3.4192201063
 H          2.9805584890       -5.5100116852        1.8114348375
 H          0.0273343432       -6.3970512323       -0.9373768464
 H         -0.6595717132       -6.6328945234        0.6718091723
 H         -4.4717181314        1.3494709009        4.3816648904
 H         -3.7735380978        2.4313701100        5.5909236715
 H         -4.2801170401        4.6174539695        2.1160674744
 H         -4.9969580404        3.5350959939        0.9183400168
 H         -4.8591582470        3.6195958503       -3.6391099473
 H         -3.9212449442        4.4433810831       -2.3899184037
 H         -1.4899068140        4.0667254390       -5.7063544228
 H         -2.4320873890        3.2626790356       -6.9655717970
 H          6.4854660217        1.2305708648       -1.5111373689
 H          6.2050161741        0.6419577806        0.1300770969
 H          5.8115843853       -2.5802822388       -2.4225237958
 H          6.1071338431       -1.9939124568       -4.0619342902
 H         -1.0685865324       -0.6243177572        3.3501122658
 H         -0.3483375952       -0.6521189867       -1.6525085564
 H          0.4542739080        0.4457472792        0.5290856143
 H          0.7082934906        0.8599842316       -4.6112313413
 H          3.0364305361       -1.6034333739        2.6479881178
 H         -2.9206180132       -3.3628558003        0.4134093883
 H          1.8829924279        2.4603025071        3.3898695011
 H         -4.4847171696        0.3003088577       -1.2143575561
 H         -0.9096698335        4.4118145858       -0.2566513957
 H         -2.1213811611       -2.3363681760       -4.5360490173
 H          2.9607968171        3.1384325899       -1.6387234221
 H          1.9765557788       -3.0763721658       -3.5080630226
 H         -0.4535560310       -2.9320360540        3.0334731097
 H          0.5699367558       -2.6782838075       -0.8074389806
 H         -0.4353431830        3.0626373433        3.5098763024
 H         -1.1171672419        1.4587420795       -2.3970967711
 H         -1.7682519209        1.0285994147        1.1165282232
 H         -2.9032607454       -0.0959785054       -4.8839941994
 H          2.5993370140       -0.3025537055       -0.1579200024
 H          3.0349121335        0.4754356475       -4.1152723927
 H          0.0404732261       -5.0970976476        2.5721934815
 H          1.5037112600       -4.5906975034       -0.0634123744
 H         -2.5906796359        3.6982606665        3.7933239443
 H         -3.8167993015        1.5928978586        1.9519353994
 H         -1.8202759514        3.4322594855       -3.2923411107
 H         -3.7032829701        1.9996597063       -5.2243089020
 H          4.6264195666       -1.0796155936       -0.7387025437
 H          5.1773035789        0.2397914165       -3.4415735424
 C         -0.2666618410        0.3030017846        8.0942589843
 C         -0.0933851060       -0.2516841299        6.6799277186
 O          0.7459387902       -0.1933798240        8.9520025811
 C          2.0305786971        0.1264583173        8.4467319979
 C          2.2054909921       -0.4252938653        7.0310150626
 O          1.1916039254        0.0724235432        6.1712502644
 H         -1.2157626235       -0.0172371742        8.5239850523
 H         -0.2131908008       -1.3443984099        6.6957763691
 H          2.1593106920        1.2184986551        8.4328761381
 H          2.1588167166       -1.5234818275        7.0526787388
 H         -0.8146607354        0.1921742170        5.9940990302
 H          2.7493509745       -0.3238164085        9.1312765833
 H          3.1556173639       -0.1033424432        6.6048906161
 H         -0.2198687982        1.4013987457        8.0651565309