142
-211.13155594
 C          1.1728404256       -7.2372891387        1.9228595073
 C          0.7558994863       -7.2862939575        0.4565274203
 C         -5.1541794639        3.6808012970        4.6247735765
 C         -5.6879333975        3.6655844253        3.1959391047
 C         -3.7346927348        5.5142204109       -4.2064189906
 C         -3.7642570363        4.9790211379       -5.6344841049
 C          6.9891508290       -1.1920034226       -1.3825893232
 C          6.9510677541       -1.6268140463       -2.8441149167
 C          1.6490838173       -5.8370952734        2.2919855895
 C         -0.3367852473       -6.2606996655        0.1801385670
 C         -4.0507452311        2.6423598947        4.7931015557
 C         -4.5595344017        3.9205439521        2.2029801592
 C         -4.0240398694        4.3954178133       -3.2119774481
 C         -2.7584561897        3.8453866415       -5.7998473572
 C          5.9864211204       -0.0715165799       -1.1350849833
 C          5.5450727092       -2.0732546552       -3.2283906428
 C         -0.1210419680       -0.2631030143        3.3892723584
 C         -1.6618437030       -0.7255943396       -1.1489686572
 C          0.4928763482        1.4063187469        0.1535435953
 C          0.0308964088       -0.1646615053       -4.3953806275
 C          2.1183299432       -0.8912664817        2.7671745087
 C         -3.1440095543       -2.1514983173        0.1020315306
 C          1.6053390130        1.4120667746        3.2791503635
 C         -3.9435641960       -0.0477772053       -0.7818479323
 C         -0.1234261971        3.7021501249       -0.2328607035
 C         -1.6938384947       -1.8422484509       -4.2836771522
 C          1.9580837708        2.8387438096       -1.1097517406
 C          0.6011964283       -2.4297290232       -3.8079948862
 C          0.3399920658       -2.6149629514        2.8168713330
 C         -0.8028119868       -2.8683683433       -0.2818190346
 C         -0.7150707930        2.1145794225        3.7229759226
 C         -2.4236134389        1.4181106832       -2.0820223259
 C         -1.6297178806        2.2318323655        1.0789555749
 C         -2.3306776814        0.4985021576       -4.7186265068
 C          2.6136312087        0.4835949353       -0.7017532223
 C          2.3705124719       -0.6930376098       -3.8326390271
 C          0.7885098919       -1.2429379706        3.0093643759
 C         -1.8836367380       -1.9059004855       -0.4458632684
 C          0.2726831774        1.0690580698        3.5031497782
 C         -2.6828154019        0.2058670157       -1.3207684641
 C         -0.4108598228        2.4532762098        0.3165326427
 C         -1.3129822121       -0.5192433353       -4.5039364134
 C          1.6790080839        1.5904049219       -0.5505456421
 C          0.9875502041       -1.1057238865       -4.0329599890
 C          2.5043417352        0.4226442069        2.9269898172
 C         -4.1472368341       -1.2179649720       -0.0740430394
 C          1.0515192157        3.8679131155       -0.9427568982
 C         -0.7276988039       -2.7743922910       -3.9486215529
 C          0.5603923722       -4.7986033578        2.0254316848
 C          0.1328351860       -4.8487855705        0.5355854108
 C         -2.9046197458        2.8966033077        3.8172803337
 C         -3.4551341829        2.8792748547        2.3531542462
 C         -3.0152096454        3.2608488026       -3.3585764827
 C         -3.0473313806        2.7091199383       -4.8222605032
 C          4.5691246116       -0.5128485605       -1.5061228308
 C          4.5305420169       -0.9553613608       -2.9914518399
 Br         4.3167453129        0.8961473503        2.6135563742
 Br        -5.8668299620       -1.5470778690        0.6908538210
 Br         1.4255671284        5.5708270589       -1.7234803836
 Br        -1.2596611685       -4.5826885577       -3.6362781952
 N          1.0777571534       -3.4881767668        2.2796801798
 N         -0.9548889469       -3.9391018309        0.3671526472
 N         -1.9424217604        1.8490747827        3.8825627456
 N         -3.3488932968        2.1786898196       -2.4888329564
 N         -2.3630405584        3.1797396810        1.4834154452
 N         -2.0289521409        1.7163967097       -4.8854063027
 N          3.6833521910        0.5974974393       -1.3596924559
 N          3.2110038980       -1.4413264236       -3.2599323850
 H          0.3228020151       -7.5098472649        2.5522937562
 H          1.9739864397       -7.9544863582        2.1090976125
 H          0.3881624602       -8.2819411058        0.2039052343
 H          1.6205389118       -7.0757176625       -0.1766306468
 H         -4.7578196158        4.6723631093        4.8553306070
 H         -5.9616108312        3.4686223523        5.3274149599
 H         -6.1419245621        2.6941974197        2.9873156825
 H         -6.4573176145        4.4299901497        3.0763459814
 H         -2.7505009923        5.9395519760       -3.9974755948
 H         -4.4761209079        6.3060579409       -4.0887559532
 H         -3.5277674625        5.7787502087       -6.3381285396
 H         -4.7667886351        4.6115976518       -5.8655407893
 H          7.9896236175       -0.8447855834       -1.1203383668
 H          6.7489090479       -2.0429816782       -0.7415948829
 H          7.6507512738       -2.4477878014       -3.0096865103
 H          7.2538183821       -0.7921179634       -3.4802008805
 H          1.9223701654       -5.7926677734        3.3483395687
 H          2.5295536429       -5.5707502482        1.7047828744
 H         -0.6210215598       -6.2782515750       -0.8736693012
 H         -1.2254907145       -6.4853253213        0.7719263831
 H         -4.4428819311        1.6404271502        4.6110328544
 H         -3.6535744919        2.6696345747        5.8099258120
 H         -4.1271790383        4.9094421850        2.3637764166
 H         -4.9366924296        3.8789571576        1.1795588049
 H         -5.0248724043        3.9918173278       -3.3737561073
 H         -3.9733470613        4.7729742457       -2.1891321483
 H         -1.7456466876        4.2083302927       -5.6176385083
 H         -2.7966581017        3.4471981585       -6.8159013226
 H          6.2409014993        0.8034048275       -1.7350642118
 H          5.9943357379        0.2262738766       -0.0849270355
 H          5.2481785794       -2.9390713216       -2.6340763972
 H          5.5095391541       -2.3594217575       -4.2815673642
 H         -1.1557999425       -0.5083209320        3.5726447091
 H         -0.6889355415       -0.5309837854       -1.5776644150
 H          0.2714953038        0.4426675157        0.5901276823
 H          0.3037756745        0.8648152966       -4.5683641919
 H          2.8151539946       -1.6554353536        2.4625713120
 H         -3.3062866945       -3.0675105068        0.6468649254
 H          1.9268823403        2.4389878782        3.3699042886
 H         -4.7289397723        0.6769836836       -0.9243572416
 H         -0.8264685896        4.5080972961       -0.0967712809
 H         -2.7308434198       -2.1319418746       -4.3630258025
 H          2.8783241502        2.9715231721       -1.6553729731
 H          1.3501115997       -3.1527590624       -3.5270441540
 H         -0.6861718723       -2.8317839646        3.1447798290
 H          0.1498524709       -2.5989649874       -0.7651979005
 H         -0.3397164021        3.1478857326        3.6808861181
 H         -1.3629119457        1.6218049292       -2.2901958242
 H         -1.8637995437        1.1780150523        1.2905343042
 H         -3.3740129090        0.1534530312       -4.6715719778
 H          2.3236283587       -0.4535031617       -0.1999866911
 H          2.6212312422        0.3191857575       -4.1787747078
 H         -0.3369806462       -5.0077233519        2.6319588510
 H          1.0054923268       -4.5641571009       -0.0784646267
 H         -2.4533368962        3.8893942666        3.9892244522
 H         -3.8465592012        1.8639192030        2.1765316077
 H         -1.9890794001        3.6224517256       -3.1809037311
 H         -4.0528995624        2.2872131945       -4.9940303839
 H          4.2566830736       -1.3719333022       -0.8865422794
 H          4.7723621514       -0.0712235130       -3.6051433362
 C          4.1951054659       -1.7505090773        5.4708099867
 C          4.4467911888       -2.3681953361        6.8463856071
 O          3.5144001805       -0.5108164436        5.5960547831
 C          4.2547595612        0.3794041121        6.4170931761
 C          4.5061120337       -0.2392433394        7.7926136069
 O          5.1822226490       -1.4779058184        7.6672626970
 H          3.5510220069       -2.3929390438        4.8703034760
 H          3.4844659421       -2.6013551221        7.3254575575
 H          5.2144703847        0.6093848106        5.9330519553
 H          3.5460056182       -0.3943162193        8.3065589753
 H          5.0487212288       -3.2729297737        6.7613359183
 H          3.6552104726        1.2859113542        6.5035241517
 H          5.1508844329        0.4013405380        8.3941856146
 H          5.1536596208       -1.5890859593        4.9574386438