142
-211.12674544
 C         -0.6564117051       -6.5042976497        2.0436354297
 C         -1.2952737347       -6.3150639250        0.6716048938
 C         -2.2670141116        5.7198464974        5.7022514310
 C         -2.9591461281        5.9889218768        4.3700878777
 C         -1.6611990232        7.5694016200       -2.9922681213
 C         -2.0463521996        7.1827845419       -4.4164811830
 C          6.7161255620       -2.2816645594       -2.2901199088
 C          6.2981358076       -2.5682687613       -3.7287095226
 C          0.3389915626       -5.3843658988        2.3235798334
 C         -1.9820766623       -4.9573560668        0.5879904351
 C         -1.5783053271        4.3601578115        5.6777137132
 C         -1.9541643854        5.9232476617        3.2257457536
 C         -2.1731260585        6.5303896451       -2.0011710965
 C         -1.4971887499        5.8028845995       -4.7600282303
 C          6.1717465059       -0.9324970725       -1.8370027470
 C          4.7795829668       -2.5345171361       -3.8565049108
 C          0.8482460217        0.3880112551        3.6811215831
 C         -1.4443541280        0.7784733444       -0.4425737031
 C          1.6613628543        2.0751691229        0.3679596118
 C          0.0256036025        1.0454926491       -3.9478676843
 C          2.6146382322       -0.9593944607        2.7517448835
 C         -3.1477865105       -0.1448206735        0.9862398328
 C          3.0200183085        1.3585470090        3.3037242603
 C         -3.2777183898        2.1635747787        0.2797809065
 C          1.7834425451        4.4719013270        0.1615368868
 C         -2.0979703283       -0.0327600749       -3.5890755507
 C          3.3364259419        3.0683459915       -1.0476048391
 C         -0.0555470369       -1.3236726285       -3.5241027392
 C          0.3620255053       -1.9481449419        3.0713506042
 C         -1.2826325377       -1.5896636452        0.2304083683
 C          1.1863750089        2.8020574542        4.1009303074
 C         -1.5323814483        3.1184358299       -1.1991467691
 C          0.0638226774        3.4577645847        1.6302904396
 C         -2.0298793526        2.4180673097       -3.8570963724
 C          3.2418062030        0.6030371618       -0.8248821689
 C          2.1408624940       -0.2096530995       -3.8230179610
 C          1.2917262623       -0.8318461242        3.1838248777
 C         -1.9677997740       -0.3046051948        0.2573130073
 C          1.6985416012        1.4917612619        3.7277316842
 C         -2.0919712845        2.0115472072       -0.4380013195
 C          1.1786457598        3.3379724659        0.7027219173
 C         -1.3616728899        1.1251313583       -3.8360867554
 C          2.7420829591        1.9313128233       -0.4970951301
 C          0.6850451031       -0.1665612942       -3.7802534735
 C          3.4547950653        0.1328883789        2.8305370327
 C         -3.7770508937        1.0850997475        0.9864574997
 C          2.8444501906        4.3146321712       -0.7108572285
 C         -1.4308235945       -1.2366431148       -3.4450111591
 C         -0.3383339060       -4.0165548882        2.2515949683
 C         -0.9928492637       -3.8223193402        0.8588890955
 C         -0.5543277253        4.2825249790        4.5480634671
 C         -1.2610709863        4.5650190540        3.1812462634
 C         -1.6229024814        5.1451475940       -2.3258556636
 C         -2.0138303537        4.7459990916       -3.7869229068
 C          4.6470971684       -0.8861628566       -1.9526001186
 C          4.2207113034       -1.1830099346       -3.4140644888
 Br         5.2645875629       -0.0380970282        2.2403214136
 Br        -5.3804610281        1.3088910120        2.0017729920
 Br         3.6441340325        5.8695516939       -1.4819979915
 Br        -2.4463918343       -2.8170906680       -3.0931333217
 N          0.6440671885       -2.9877977373        2.4124610511
 N         -1.7027201236       -2.5835671967        0.8833858774
 N         -0.0209531711        2.9670286312        4.4431884582
 N         -2.1902283084        4.1687346455       -1.4522351188
 N         -0.2515531768        4.5564720390        2.1719138295
 N         -1.3833780987        3.4927219200       -4.0275314022
 N          4.1972879517        0.4300325010       -1.6297751643
 N          2.7900938665       -1.2242244728       -3.4439605711
 H         -1.4335878610       -6.5002771117        2.8111762258
 H         -0.1430192178       -7.4662298822        2.0887249227
 H         -2.0282464787       -7.1019184264        0.4870498636
 H         -0.5271910038       -6.3818407672       -0.1019235172
 H         -1.5256404224        6.4994203358        5.8921448801
 H         -2.9959428862        5.7425998133        6.5138839779
 H         -3.7415177274        5.2437367307        4.2094328496
 H         -3.4291276442        6.9735328001        4.3849439585
 H         -0.5738323853        7.6395630394       -2.9155368758
 H         -2.0804580280        8.5456627838       -2.7438627510
 H         -1.6519139989        7.9155144491       -5.1222846377
 H         -3.1346446347        7.1748829560       -4.5107942418
 H          7.8042438793       -2.2765094253       -2.2096621230
 H          6.3335342670       -3.0667641424       -1.6343651777
 H          6.6668409205       -3.5477692028       -4.0378745380
 H          6.7357117478       -1.8184368261       -4.3916016970
 H          0.7790621981       -5.5036120508        3.3157719751
 H          1.1480355439       -5.4066351832        1.5915648271
 H         -2.4173665414       -4.8089915129       -0.4021610508
 H         -2.7858813101       -4.8937463595        1.3231024293
 H         -2.3130370568        3.5666054363        5.5318960318
 H         -1.0654048169        4.1754380266        6.6238360839
 H         -1.1924462328        6.6956371966        3.3438285196
 H         -2.4553874495        6.0858844260        2.2699513568
 H         -3.2630349711        6.4841046336       -2.0276658883
 H         -1.8702491047        6.7923018990       -0.9858303538
 H         -0.4068351445        5.8079251919       -4.7157200990
 H         -1.7923853334        5.5164477269       -5.7715628464
 H          6.5860937062       -0.1313498948       -2.4509807302
 H          6.4466255554       -0.7384722998       -0.7984197074
 H          4.3310920932       -3.3121280648       -3.2359738062
 H          4.4794539329       -2.7139279378       -4.8909578813
 H         -0.1704054291        0.5135232503        4.0139158973
 H         -0.5300586936        0.6625628448       -1.0073222833
 H          1.1953525456        1.1990902781        0.7964803953
 H          0.5756151092        1.9537974635       -4.1392037378
 H          2.9496538124       -1.9086544894        2.3652734391
 H         -3.5427648645       -0.9880586041        1.5294875345
 H          3.6909265648        2.2038503324        3.3341123507
 H         -3.7738394717        3.1207544114        0.2738712685
 H          1.4052701008        5.4450017524        0.4306509344
 H         -3.1729880582        0.0125039607       -3.5004072883
 H          4.1702222011        2.9465603433       -1.7199854359
 H          0.4642082503       -2.2592539382       -3.3927934800
 H         -0.6068668083       -1.8121195109        3.5716630486
 H         -0.3800999813       -1.6346203674       -0.3993872757
 H          1.8942173378        3.6396162863        4.0174140832
 H         -0.4995088305        2.9738244721       -1.5482590709
 H         -0.4792634016        2.5237913566        1.8359976149
 H         -3.1128746919        2.4062101370       -3.6660789230
 H          2.7345846972       -0.2344189064       -0.3203053150
 H          2.6332757721        0.7063673326       -4.1779419602
 H         -1.1398533844       -3.9367173182        3.0053739709
 H         -0.1882389536       -3.8203906488        0.1027210674
 H          0.2335912366        5.0449210319        4.6761974463
 H         -1.9930750362        3.7544049687        3.0311466562
 H         -0.5213222071        5.1390524790       -2.2810969047
 H         -3.1146901560        4.6758578745       -3.8272219077
 H          4.1852347562       -1.6497943244       -1.3024783840
 H          4.6188635218       -0.3697371994       -4.0441712247
 C         -2.7607297605      -15.5097992426        1.2794473355
 C         -3.7136208195      -15.3301759031        0.0958645328
 O         -2.2853660725      -14.2530181478        1.7317323548
 C         -3.3671660802      -13.4077572812        2.0864497689
 C         -4.3200442718      -13.2283062383        0.9028549892
 O         -4.7954422804      -14.4853625187        0.4509737340
 H         -1.8800154531      -16.0820933390        0.9876875522
 H         -3.1680966818      -14.8916672254       -0.7522676219
 H         -3.9128229033      -13.8459767374        2.9346336212
 H         -3.7956026580      -12.7172830267        0.0825144197
 H         -4.1542764303      -16.2828805713       -0.1981153621
 H         -2.9261043130      -12.4551331188        2.3799852682
 H         -5.2009040279      -12.6561916959        1.1944647978
 H         -3.2853950205      -16.0211151147        2.0995285932