142
-211.12781568
 C          3.1133024559       -6.6087155760        3.4481979101
 C          2.1259789050       -7.1040305200        2.3964160728
 C         -3.5036404427        4.0612982782        6.2142587445
 C         -4.5650688217        3.6012771189        5.2202473889
 C         -6.3134879180        3.4799433729       -2.3654595259
 C         -6.8169980170        2.5633557470       -3.4757404433
 C          5.7747827181       -1.0425351709       -3.5824112145
 C          5.2047047625       -1.8524841943       -4.7422496816
 C          3.4260354813       -5.1330651070        3.2284708200
 C          0.8477159988       -6.2754255544        2.4353819529
 C         -2.2436627514        3.2142731244        6.0773249448
 C         -4.0274301584        3.6747852688        3.7956029124
 C         -5.9225194111        2.6641676056       -1.1384055231
 C         -5.7533895325        1.5335454496       -3.8388763419
 C          4.7622963985       -0.0059242664       -3.1114103437
 C          3.9037553490       -2.5293891857       -4.3264253322
 C          1.2411457569        0.3790612962        3.7316744617
 C         -1.9397336489       -1.4478866026        0.6736190531
 C          0.1248474820        1.1977584549        0.2347725906
 C         -1.8437368408       -1.6024832562       -3.0939058085
 C          3.1193542783       -0.2238986090        2.3501867176
 C         -2.4547817533       -2.5719439320        2.7392806654
 C          2.3987194541        2.0794507960        2.4789774257
 C         -3.9418985041       -0.8698945107        1.8813302982
 C         -1.0535285420        3.2367790039       -0.2706974911
 C         -2.9396983461       -3.3579813979       -1.8616684612
 C          0.6083080426        2.3822324592       -1.8045428333
 C         -0.5917401286       -3.5407025591       -2.4044141310
 C          1.8850215051       -1.9926995104        3.5756674909
 C         -0.4043853743       -3.1948982594        1.4956594020
 C          0.3779376158        2.6966016823        3.7507593663
 C         -3.4231245458        0.2834698981       -0.2508893532
 C         -1.5443060212        2.0301201361        1.8386199069
 C         -4.2033892030       -1.3128906838       -2.4115076464
 C          1.8442636319        0.2979866297       -1.2885348543
 C          0.5643752181       -1.7029671767       -3.6028723073
 C          2.0964772495       -0.5937515586        3.2276512447
 C         -1.6148550794       -2.3974126876        1.6378279336
 C          1.3726425871        1.7130562532        3.3488398423
 C         -3.0983377835       -0.6834110167        0.7868168694
 C         -0.8240683775        2.1566822664        0.5808620089
 C         -2.9916477901       -2.1151996386       -2.4913949465
 C          0.8487888938        1.3056068187       -0.9488401673
 C         -0.6415584695       -2.2982051264       -3.0421820164
 C          3.2576923441        1.1046324985        2.0025285605
 C         -3.5985468678       -1.8037361621        2.8414255247
 C         -0.3391917495        3.3236439416       -1.4513190201
 C         -1.7420314398       -4.0508989985       -1.8375063096
 C          2.1526868842       -4.2896535001        3.2739338300
 C          1.1468511523       -4.7927219153        2.2060627148
 C         -1.6817762033        3.2896275660        4.6598660523
 C         -2.7723122466        2.8220438514        3.6400814519
 C         -4.8503777765        1.6353964853       -1.4834307765
 C         -5.3623691784        0.6954653819       -2.6242006519
 C          3.4523520742       -0.6699581994       -2.6830565038
 C          2.8747204300       -1.5015664648       -3.8577934753
 Br         4.6528743631        1.6134177169        0.7996389678
 Br        -4.7377069896       -2.0298972751        4.3589406972
 Br        -0.6805386366        4.7868976018       -2.6323097828
 Br        -1.6759343689       -5.7481328094       -0.9614713886
 N          2.4680681660       -2.9288420348        2.9607061224
 N         -0.0599905428       -4.0453388797        2.3610011153
 N         -0.5925467821        2.3871306752        4.5020230177
 N         -4.5675402978        0.8126904051       -0.3511776952
 N         -2.2230867178        2.9770141562        2.3313773434
 N         -4.2715397561       -0.1636475797       -2.9371990566
 N          2.5013665910        0.3463891565       -2.3639409883
 N          1.7110760193       -2.1777091325       -3.3703382167
 H          2.6840940471       -6.7451916497        4.4433266336
 H          4.0370791211       -7.1874759491        3.3973013637
 H          1.8818283121       -8.1523571291        2.5748583682
 H          2.5783651132       -7.0274885480        1.4053227032
 H         -3.2589958246        5.1094757851        6.0275117930
 H         -3.8855130638        3.9804508348        7.2331932084
 H         -4.8540585578        2.5724522987        5.4465510819
 H         -5.4541948636        4.2278799849        5.3060181998
 H         -5.4452697137        4.0394200117       -2.7209491234
 H         -7.0886885122        4.1977885499       -2.0928324111
 H         -7.0691602112        3.1508700451       -4.3599499810
 H         -7.7216146973        2.0494718607       -3.1425621826
 H          6.6912665353       -0.5376194230       -3.8910871798
 H          6.0209024476       -1.7119812186       -2.7554423728
 H          5.9229245226       -2.6103444244       -5.0594539755
 H          5.0156298371       -1.1907098732       -5.5903873191
 H          4.1125887322       -4.7696712572        3.9959020233
 H          3.9003581370       -4.9882952464        2.2563738102
 H          0.1497234273       -6.6121364531        1.6664720721
 H          0.3579210627       -6.3803261697        3.4047125174
 H         -2.4632145374        2.1700896989        6.3058937222
 H         -1.4757614293        3.5579027317        6.7734795521
 H         -3.7799673606        4.7051223055        3.5350581894
 H         -4.7772596827        3.3178622331        3.0873818463
 H         -6.7909791554        2.1376308877       -0.7393416358
 H         -5.5342732985        3.3178846064       -0.3553604936
 H         -4.8586332098        2.0309371580       -4.2167305130
 H         -6.1216927060        0.8634716883       -4.6184597667
 H          4.5408943243        0.6991206390       -3.9138011660
 H          5.1570751832        0.5583374029       -2.2646135937
 H          4.0869721556       -3.2296648952       -3.5097848893
 H          3.4805434417       -3.0900389369       -5.1624006670
 H          0.4398101740        0.1174890994        4.4051737711
 H         -1.2933468762       -1.3070050627       -0.1811052082
 H          0.3063597174        0.3670438462        0.9020100483
 H         -1.9060890600       -0.6386304459       -3.5748071518
 H          3.7772065472       -0.9853357432        1.9627813029
 H         -2.1925640685       -3.3066915164        3.4832937882
 H          2.5136938697        3.1084324761        2.1731036930
 H         -4.8391787604       -0.2770760635        1.9571448866
 H         -1.7869486043        3.9760936359        0.0083405595
 H         -3.8199617967       -3.7682015134       -1.3900611910
 H          1.1718599703        2.4557297210       -2.7205966026
 H          0.3454685154       -4.0726440519       -2.3679183648
 H          1.1639723383       -2.1779113348        4.3839003519
 H          0.1833462959       -3.0082356776        0.5828898517
 H          0.4917086016        3.7024453140        3.3207679682
 H         -2.6057243956        0.5145166952       -0.9495844410
 H         -1.4478602906        1.0550821765        2.3383164404
 H         -5.0296912197       -1.7422983427       -1.8263547797
 H          1.9857371782       -0.5009686217       -0.5435847277
 H          0.4117471256       -0.8006590047       -4.2110949898
 H          1.6601206778       -4.3781672089        4.2570691928
 H          1.6011261065       -4.6383003206        1.2115256315
 H         -1.4077064099        4.3264257215        4.3981953752
 H         -2.9847211513        1.7647293977        3.8687576557
 H         -3.9410735452        2.1280973602       -1.8651933685
 H         -6.2320551876        0.1412275153       -2.2304412100
 H          3.6237267635       -1.3547120820       -1.8340318314
 H          2.6278688273       -0.7968983508       -4.6698799416
 C          9.4639742013        5.1187348180       -5.0944815622
 C          8.4001667356        5.7915835762       -5.9643742413
 O          8.8702136550        4.5196203452       -3.9552809612
 C          7.8778935213        3.5832144858       -4.3416934720
 C          6.8151766090        4.2547409694       -5.2138489172
 O          7.4099832242        4.8545559629       -6.3529260131
 H         10.1787594631        5.8500957237       -4.7170055469
 H          7.9300046474        6.6112692735       -5.4020239565
 H          8.3479145831        2.7617657193       -4.9016799786
 H          6.2885753667        5.0210061336       -4.6270760201
 H          8.8358808405        6.1755613955       -6.8868717269
 H          7.4414754886        3.2038696524       -3.4177807826
 H          6.1024326394        3.5231840020       -5.5938586415
 H          9.9880612958        4.3512776155       -5.6825376890