142
-211.12888387
 C         -0.4591259201       -6.7877137914        1.8919786499
 C         -1.0247788582       -6.6527661007        0.4822293198
 C         -3.2375376406        5.2546043410        5.5536229579
 C         -3.9280079126        5.4444502850        4.2068323159
 C         -2.4362571635        7.1245825339       -3.3008866635
 C         -2.7894191906        6.7056665019       -4.7244368326
 C          6.3065961183       -2.3580252757       -2.1032083021
 C          5.9716744653       -2.6780763345       -3.5564372384
 C          0.4219011244       -5.5887675093        2.2224343774
 C         -1.8187207661       -5.3585775795        0.3493149228
 C         -2.4357356132        3.9579976914        5.5637786570
 C         -2.9032634057        5.4429226800        3.0780756441
 C         -2.8918551397        6.0640038476       -2.3049500035
 C         -2.1590497957        5.3575789957       -5.0553208315
 C          5.6869427302       -1.0267751455       -1.6958107362
 C          4.4610365361       -2.7078579080       -3.7584404620
 C          0.3721733615        0.1893299974        3.6268271244
 C         -1.7680496585        0.3855194730       -0.7063406489
 C          1.0063043433        1.7930628161        0.3494271054
 C         -0.4216510099        0.6674221671       -4.1393562257
 C          2.2811802926       -0.9880181296        2.7492137960
 C         -3.4086909462       -0.6618734860        0.7100208534
 C          2.4572953926        1.3542931343        3.3156200073
 C         -3.7172200632        1.6224422538       -0.0192869931
 C          0.9801939350        4.1858625654        0.0771320250
 C         -2.5116747148       -0.4884344646       -3.8278359868
 C          2.6260324772        2.8487375939       -1.0846960932
 C         -0.4243927162       -1.6959246317       -3.6747779595
 C          0.1177469477       -2.1754830960        2.9816696288
 C         -1.4133403197       -1.9501207697        0.0041470406
 C          0.4786243557        2.6245094194        4.0534352180
 C         -2.0338460753        2.7035190456       -1.4835798302
 C         -0.6871460073        3.1018026074        1.5590758025
 C         -2.5324484393        1.9578766058       -4.1256580328
 C          2.6735179836        0.3868384204       -0.8007844437
 C          1.7350685243       -0.4993189324       -3.9030792390
 C          0.9391290578       -0.9822957881        3.1388607898
 C         -2.2084245171       -0.7295790410        0.0001640604
 C          1.1173213390        1.3653415750        3.7007234758
 C         -2.5132749567        1.5619826570       -0.7201017247
 C          0.4424043034        3.0316181668        0.6451481080
 C         -1.8139267952        0.6935495266       -4.0725904356
 C          2.0982693264        1.6923852911       -0.5073287446
 C          0.2782903852       -0.5142817185       -3.9254643395
 C          3.0161223758        0.1751374564        2.8553700375
 C         -4.1376890461        0.5115331413        0.6883342273
 C          2.0562423912        4.0708884668       -0.7835792484
 C         -1.8036858638       -1.6628044838       -3.6425554946
 C         -0.3629377596       -4.2829182951        2.1036163613
 C         -0.9485574550       -4.1428284060        0.6747427155
 C         -1.3931670553        3.9483786013        4.4487409831
 C         -2.1043695565        4.1436575114        3.0690056428
 C         -2.2572232356        4.7128478128       -2.6181966456
 C         -2.6228593182        4.2814474259       -4.0771132247
 C          4.1684567380       -1.0489095954       -1.8825124501
 C          3.8276298643       -1.3757293368       -3.3592034271
 Br         4.8495331737        0.1713666925        2.3175847101
 Br        -5.7712492126        0.6087435393        1.6746837474
 Br         2.7679842271        5.6509660350       -1.5882175151
 Br        -2.7671147446       -3.2759903837       -3.2943928607
 N          0.5149949831       -3.1727727450        2.3168321740
 N         -1.7628936357       -2.9699613498        0.6584261991
 N         -0.7442021566        2.6834317074        4.3747906062
 N         -2.7600420878        3.7076990003       -1.7375943647
 N         -1.0868588171        4.1885713797        2.0681476742
 N         -1.9318978311        3.0577755510       -4.3042718043
 N          3.6443699800        0.2477341027       -1.5936313202
 N          2.4029909243       -1.4743801637       -3.4588011815
 H         -1.2812964713       -6.8417470742        2.6091827578
 H          0.1257861958       -7.7043416669        1.9785092901
 H         -1.6746226816       -7.4994795107        0.2565887567
 H         -0.2066445826       -6.6542435317       -0.2412218895
 H         -2.5681035660        6.0970955524        5.7420957566
 H         -3.9793811390        5.2279296641        6.3533700981
 H         -4.6440557404        4.6350572604        4.0475203286
 H         -4.4773461898        6.3871671575        4.1981204342
 H         -1.3553230614        7.2588413212       -3.2185853837
 H         -2.9133964358        8.0763910751       -3.0621837043
 H         -2.4347288617        7.4554631333       -5.4333652463
 H         -3.8748722246        6.6332126072       -4.8245169370
 H          7.3882839862       -2.3081829786       -1.9694297338
 H          5.9231563097       -3.1503483086       -1.4566471137
 H          6.3944994642       -3.6449415398       -3.8345140116
 H          6.4105109303       -1.9182725596       -4.2069279997
 H          0.8113646947       -5.6703256326        3.2391456866
 H          1.2713619895       -5.5456278537        1.5388660843
 H         -2.2058462059       -5.2477467559       -0.6654876861
 H         -2.6680723133       -5.3644974101        1.0341906990
 H         -3.0981420073        3.1021907734        5.4239237723
 H         -1.9225836453        3.8349260239        6.5197763528
 H         -2.2082753834        6.2761677328        3.1938010874
 H         -3.4007921429        5.5493586312        2.1124592465
 H         -3.9768763837        5.9525990068       -2.3371890054
 H         -2.6118362965        6.3503847895       -1.2896598323
 H         -1.0711861809        5.4255959071       -5.0036914687
 H         -2.4303303641        5.0478364425       -6.0666665509
 H          6.0953552338       -0.2174520480       -2.3029441697
 H          5.9064767585       -0.8062172686       -0.6494545887
 H          4.0141620868       -3.4970538874       -3.1514398067
 H          4.2194020586       -2.9093831686       -4.8040845671
 H         -0.6634801317        0.2202782989        3.9279878844
 H         -0.8408569248        0.3384764464       -1.2597868158
 H          0.5937785127        0.9015616955        0.8001967222
 H          0.0986415479        1.5935876723       -4.3284236688
 H          2.7119536941       -1.9013802655        2.3714035796
 H         -3.7405672352       -1.5299751695        1.2563498993
 H          3.0469300527        2.2572762047        3.3659398637
 H         -4.2892445557        2.5360555149       -0.0402106117
 H          0.5407548256        5.1407412353        0.3166621686
 H         -3.5898502399       -0.4841195000       -3.7723173511
 H          3.4698093328        2.7610356514       -1.7499588513
 H          0.1268872307       -2.6075964371       -3.5090005090
 H         -0.8765403776       -2.1353120886        3.4477152073
 H         -0.4927116736       -1.9198261382       -0.6001823600
 H          1.1074529837        3.5230606270        3.9696567501
 H         -0.9939189230        2.6282744965       -1.8339603662
 H         -1.1655890812        2.1374873459        1.7853176163
 H         -3.6159235774        1.9036110942       -3.9442591886
 H          2.2052447334       -0.4651583524       -0.2825008883
 H          2.2082928038        0.4250655669       -4.2621660729
 H         -1.2113129328       -4.2730733254        2.8088914675
 H         -0.1052442572       -4.0686343245       -0.0344175783
 H         -0.6765088511        4.7790196762        4.5715273374
 H         -2.7695049649        3.2751959125        2.9324545498
 H         -1.1575049301        4.7761700421       -2.5751510942
 H         -3.7188539203        4.1561783707       -4.1193959679
 H          3.7116835262       -1.8276864734       -1.2464460939
 H          4.2239877551       -0.5532950132       -3.9785255733
 C          3.5438312935      -10.8868051123        1.7993777515
 C          2.8848879134       -9.5171292639        1.6278796964
 O          3.9171559535      -11.0943680159        3.1513793376
 C          2.7911053227      -10.9743510586        4.0045154102
 C          2.1310060985       -9.6051218221        3.8338271221
 O          1.7590979856       -9.3964293145        2.4816191170
 H          4.4620096895      -10.9542470468        1.2157137176
 H          3.6109391913       -8.7262837033        1.8651043533
 H          2.0646775616      -11.7652286175        3.7678219867
 H          2.8308873151       -8.8171450917        4.1471716818
 H          2.5122957745       -9.3886467912        0.6115643989
 H          3.1632049594      -11.1038315784        5.0209056270
 H          1.2121511404       -9.5399618998        4.4166395576
 H          2.8424056565      -11.6739768679        1.4869362085