142
-211.12847336
 C          3.1287879487       -6.8439001347        2.3512690468
 C          2.7388255520       -6.9956854814        0.8845073967
 C         -4.7385602356        3.1290792040        4.4423138094
 C         -5.2037699715        2.9792405484        2.9974795273
 C         -3.3253098542        4.9107584827       -4.3051946329
 C         -3.2623124580        4.3282055856       -5.7134607741
 C          8.1542370529       -0.2385712142       -1.1401466102
 C          8.1857599293       -0.7113830795       -2.5899297269
 C          3.4046064465       -5.3807634116        2.6781530446
 C          1.5195958430       -6.1383462739        0.5671152356
 C         -3.5031331231        2.2722377461        4.6948064122
 C         -4.0850121146        3.3663317818        2.0368284038
 C         -3.4835329870        3.7980331765       -3.2751792509
 C         -2.1151041632        3.3306109334       -5.8267803079
 C          7.0121262116        0.7476745862       -0.9277142483
 C          6.8534860977       -1.3476272772       -2.9690772785
 C          0.8544493886       -0.0790218796        3.5581053450
 C         -0.5152908892       -0.8971678263       -0.9974258738
 C          1.3451154705        1.5302382527        0.2485212104
 C          1.1542309732       -0.2232208866       -4.2440190958
 C          3.1846648472       -0.4072641703        3.0450463061
 C         -1.8127256450       -2.4403386791        0.3179346234
 C          2.3244689821        1.8224918619        3.4018414049
 C         -2.8665680974       -0.4978415651       -0.6641753195
 C          0.4368198583        3.7098063644       -0.2259443103
 C         -0.3345682588       -2.1106092666       -4.0928696375
 C          2.6369342489        3.1091723079       -1.0292079071
 C          2.0091403989       -2.3702589891       -3.5654848788
 C          1.6621132691       -2.3632944239        3.1142557823
 C          0.6045349376       -2.8688599947       -0.0315444454
 C         -0.0856870712        2.2011244861        3.7518304235
 C         -1.5322322990        1.0935835344       -2.0203741187
 C         -0.8965910602        2.0855120453        1.0910563709
 C         -1.2686225022        0.1078932574       -4.6218506483
 C          3.5876730985        0.8733460353       -0.5387945510
 C          3.5337889893       -0.4166166347       -3.6340549312
 C          1.9086030610       -0.9346612946        3.2602029373
 C         -0.5903741191       -2.0629613300       -0.2411704697
 C          1.0487124120        1.3004551984        3.6111670323
 C         -1.6444001740       -0.1109362179       -1.2124577409
 C          0.3046710522        2.4497335038        0.3563406034
 C         -0.1286860616       -0.7571790184       -4.3569880594
 C          2.5129792201        1.8511720380       -0.4366943732
 C          2.2206589490       -1.0153732508       -3.8347920644
 C          3.3701797945        0.9575976920        3.1313349720
 C         -2.9244988527       -1.6500678144        0.0979690844
 C          1.5974899646        4.0121624990       -0.9139090250
 C          0.7403747941       -2.8935159546       -3.7103986829
 C          2.1859851021       -4.5114087893        2.3711390085
 C          1.7890743981       -4.6651949889        0.8803081403
 C         -2.3667541221        2.6575026280        3.7509724625
 C         -2.8472477542        2.5059131026        2.2692820305
 C         -2.3346514524        2.7992505397       -3.3697671046
 C         -2.2694041874        2.1996190216       -4.8132029606
 C          5.6670686497        0.1172941647       -1.2944116161
 C          5.6994800169       -0.3664191209       -2.7671407544
 Br         5.1125363366        1.6821873323        2.8301049356
 Br        -4.5922906671       -2.1544226490        0.8802651308
 Br         1.7614563993        5.7277872840       -1.7391943726
 Br         0.4471668482       -4.7445247145       -3.3371457574
 N          2.5124675531       -3.1346080135        2.5886245972
 N          0.5912424717       -3.9161419199        0.6709791000
 N         -1.2660624496        1.7663474736        3.8939573184
 N         -2.5409408495        1.7130666823       -2.4660058325
 N         -1.7759553625        2.9308427475        1.4266309728
 N         -1.1280284149        1.3488359889       -4.8276255170
 N          4.6438793205        1.1076639035       -1.1868381000
 N          4.4578204108       -1.0287970793       -3.0292857472
 H          2.3172162339       -7.2107819954        2.9835680880
 H          4.0184956625       -7.4381869536        2.5661147785
 H          2.5132999107       -8.0397678962        0.6620954917
 H          3.5737291903       -6.6889730887        0.2506660237
 H         -4.5002752109        4.1764886807        4.6411627588
 H         -5.5344674087        2.8291903454        5.1255936037
 H         -5.4946438046        1.9426442867        2.8139406592
 H         -6.0740415238        3.6119569250        2.8167325025
 H         -2.4079150569        5.4670880434       -4.1000315825
 H         -4.1647408390        5.6031223532       -4.2243521030
 H         -3.1206404727        5.1275820692       -6.4425153403
 H         -4.2047674160        3.8254817966       -5.9425469241
 H          9.0988373808        0.2423246939       -0.8814684398
 H          8.0209467436       -1.0972505443       -0.4784846128
 H          8.9881338258       -1.4376450805       -2.7301679697
 H          8.3822357429        0.1393502872       -3.2462185486
 H          3.6577526272       -5.2663963448        3.7341801055
 H          4.2465573654       -5.0141925922        2.0884492788
 H          1.2529570620       -6.2273420799       -0.4877439968
 H          0.6630603787       -6.4640166331        1.1593378153
 H         -3.7360898645        1.2172742345        4.5415929200
 H         -3.1569319618        2.3958256050        5.7229614533
 H         -3.8101611506        4.4133794502        2.1736289978
 H         -4.4086352923        3.2345716775        1.0029273162
 H         -4.4213253140        3.2631342189       -3.4336512987
 H         -3.4976725876        4.2134541051       -2.2660004461
 H         -1.1612000766        3.8285796908       -5.6455005875
 H         -2.0845330038        2.8972009873       -6.8285752473
 H          7.1562703617        1.6331783763       -1.5486527242
 H          6.9731032854        1.0702640920        0.1144826959
 H          6.6673433600       -2.2293564790       -2.3535406205
 H          6.8644049491       -1.6628060765       -4.0145091228
 H         -0.1409704348       -0.4618362145        3.7217302306
 H          0.4283157912       -0.5996234301       -1.4323774493
 H          1.2439473945        0.5585601596        0.7109592516
 H          1.2912493709        0.8267337512       -4.4514861582
 H          3.9962859621       -1.0782707249        2.8135246536
 H         -1.8609779557       -3.3425113447        0.9062151380
 H          2.4906036014        2.8886156135        3.4386318903
 H         -3.7366202564        0.1137423003       -0.8408554071
 H         -0.3716727213        4.4168564802       -0.1323604428
 H         -1.3223768932       -2.5384550302       -4.1751413570
 H          3.5440409870        3.3482292690       -1.5604508423
 H          2.8422012815       -2.9767512878       -3.2480702248
 H          0.6789619258       -2.7149711955        3.4564100267
 H          1.5165096155       -2.5016093277       -0.5287950962
 H          0.1386580947        3.2746710447        3.6691224972
 H         -0.5033872396        1.4248188800       -2.2245546615
 H         -0.9844670626        1.0181472535        1.3418719754
 H         -2.2575651754       -0.3714095781       -4.5765996090
 H          3.4143157819       -0.0790129802       -0.0128314162
 H          3.6536327472        0.6083284221       -4.0115213615
 H          1.3192634022       -4.8256125605        2.9770401493
 H          2.6234182903       -4.2853369339        0.2644149359
 H         -2.0728540101        3.7115161746        3.8963698286
 H         -3.0787826344        1.4382265976        2.1219174504
 H         -1.3668980796        3.2963726710       -3.1918606977
 H         -3.2075735913        1.6431333507       -4.9827756743
 H          5.4615475088       -0.7574792975       -0.6523681502
 H          5.8287116596        0.5251924338       -3.4038306030
 C         -9.0155178681        0.0653843299        4.7530874848
 C         -7.8474815662       -0.9194447629        4.8389859208
 O        -10.1023881942       -0.5088253995        4.0463519622
 C        -10.5124716337       -1.7209450527        4.6562839476
 C         -9.3429156328       -2.7039572160        4.7411075624
 O         -8.2617505969       -2.1279648734        5.4546111643
 H         -8.7331565700        0.9604810533        4.1990963730
 H         -7.4690899576       -1.1331023398        3.8293117677
 H        -10.8918567574       -1.5131640768        5.6675241794
 H         -9.0120284315       -2.9721174231        3.7274481733
 H         -7.0460797244       -0.5215997301        5.4614706604
 H        -11.3133720258       -2.1199670594        4.0337208131
 H         -9.6275493852       -3.6017631803        5.2899536476
 H         -9.3411875505        0.3385120733        5.7674802869