142
-211.12835934
 C          4.1927488644       -6.1644781864        3.5222304613
 C          3.1791376037       -6.6698062853        2.5007117106
 C         -2.3465676923        4.5782565005        6.5229448705
 C         -3.4581347964        4.1063855242        5.5910696526
 C         -5.5197368380        3.8669143701       -1.8850578536
 C         -6.1259712466        2.9452584062       -2.9383071951
 C          6.3805472893       -1.0948458627       -3.4539508755
 C          5.7437990991       -1.9220280983       -4.5659676660
 C          4.4747630789       -4.6830466175        3.3004584701
 C          1.8892972572       -5.8631861085        2.5892691518
 C         -1.1052280590        3.7097629267        6.3535510684
 C         -2.9854788122        4.1291603591        4.1416901207
 C         -5.0715034297        3.0626210386       -0.6702833254
 C         -5.1234374431        1.8732439599       -3.3510795909
 C          5.4229359793       -0.0047688446       -2.9882151970
 C          4.4320033248       -2.5334758947       -4.0873781422
 C          2.2723443621        0.8099323344        3.8855164497
 C         -1.0457439973       -1.0867492991        0.9461629074
 C          0.9806520233        1.4763260436        0.4965847283
 C         -1.2386091640       -1.3735463346       -2.7299780237
 C          4.0865899709        0.2030354038        2.4219937515
 C         -1.4498220798       -2.1988161640        3.0427200092
 C          3.3649919184        2.5040909114        2.5669953072
 C         -2.9825328736       -0.5035273045        2.2535017345
 C         -0.1833453996        3.5148862012       -0.0409681563
 C         -2.3396321491       -3.0475310431       -1.3926812424
 C          1.3957332753        2.5676788513       -1.6084232575
 C         -0.0252705671       -3.3311311166       -2.0240289978
 C          2.9167811517       -1.5629494410        3.7080577217
 C          0.5437049312       -2.8125446105        1.7036439031
 C          1.4049166335        3.1279989221        3.9221913113
 C         -2.5745186313        0.6387285322        0.0907887507
 C         -0.6078390349        2.3946181212        2.1315671188
 C         -3.5560613036       -0.9805003397       -1.9478080118
 C          2.6064429699        0.4746557240       -1.0628710108
 C          1.1469082630       -1.5745434949       -3.3204217053
 C          3.1062069519       -0.1637517280        3.3479363998
 C         -0.6670452669       -2.0270316738        1.8995900040
 C          2.3821248071        2.1414711484        3.4871008187
 C         -2.1970930688       -0.3219274173        1.1157532270
 C          0.0622969775        2.4645361161        0.8424665765
 C         -2.3767060012       -1.8253066083       -2.0630887987
 C          1.6530969312        1.5213240458       -0.7207534617
 C         -0.0593234904       -2.1091766543       -2.7009965595
 C          4.2044758450        1.5289797537        2.0582452047
 C         -2.5897724336       -1.4336178075        3.1982138992
 C          0.4826897824        3.5416732803       -1.2525149074
 C         -1.1671902243       -3.7819066280       -1.3937416340
 C          3.1907722607       -3.8591829387        3.3899736822
 C          2.1558588646       -4.3746745128        2.3567394658
 C         -0.6077045185        3.7439411437        4.9109017272
 C         -1.7473897736        3.2579358822        3.9557791455
 C         -4.0541087166        1.9975912351       -1.0665688090
 C         -4.6711542204        1.0495385437       -2.1482385069
 C          4.1054258395       -0.6064491314       -2.4949902604
 C          3.4587565944       -1.4503388089       -3.6232196730
 Br         5.5381921301        2.0316134037        0.7856731938
 Br        -3.6519039576       -1.6575987788        4.7708824777
 Br         0.1185959019        4.9646956261       -2.4743908899
 Br        -1.1208810334       -5.4476623693       -0.4593494171
 N          3.4772735894       -2.4946435192        3.0661006160
 N          0.9448736690       -3.6459397547        2.5609549098
 N          0.4707645634        2.8334488976        4.7239731658
 N         -3.7129282767        1.1894615790        0.0593301714
 N         -1.2553721097        3.3655935343        2.6193760530
 N         -3.6295829260        0.1497049344       -2.5134792786
 N          3.2007623707        0.4509817094       -2.1747493358
 N          2.2855181933       -2.0642431822       -3.0792389649
 H          3.7987308042       -6.3127239723        4.5300928665
 H          5.1234733338       -6.7280115297        3.4378454020
 H          2.9588973899       -7.7233393110        2.6795499577
 H          3.5967721538       -6.5786967500        1.4956281999
 H         -2.0963809338        5.6170527224        6.2954833235
 H         -2.6832176576        4.5317689089        7.5598124753
 H         -3.7515823099        3.0894011595        5.8608623711
 H         -4.3332308289        4.7493429592        5.6978317308
 H         -4.6607115277        4.3911361978       -2.3098405797
 H         -6.2521294817        4.6144167835       -1.5763374196
 H         -6.4195420360        3.5229552589       -3.8161538219
 H         -7.0214272570        2.4683522064       -2.5332376183
 H          7.3042643268       -0.6356781927       -3.8094273907
 H          6.6295283543       -1.7444940498       -2.6119861395
 H          6.4229855263       -2.7174181743       -4.8774148310
 H          5.5528669830       -1.2831578371       -5.4310632289
 H          5.1794968980       -4.3122042742        4.0476046605
 H          4.9158347493       -4.5262173421        2.3146427106
 H          1.1692340985       -6.2085865677        1.8450101484
 H          1.4364424917       -5.9807369401        3.5749327710
 H         -1.3282845169        2.6748687440        6.6179945033
 H         -0.3028024488        4.0595764716        7.0062762185
 H         -2.7404029326        5.1478855079        3.8370709235
 H         -3.7707642437        3.7582682800        3.4806019228
 H         -5.9259396403        2.5691028648       -0.2044127279
 H         -4.6135484017        3.7182335886        0.0723811623
 H         -4.2435874107        2.3319256520       -3.8049981254
 H         -5.5708916990        1.1987463953       -4.0837043341
 H          5.2012249612        0.6800612988       -3.8081224622
 H          5.8673198064        0.5745730454       -2.1766367342
 H          4.6142909314       -3.2131016632       -3.2531186392
 H          3.9611589684       -3.1041672120       -4.8904581919
 H          1.5039391673        0.5505503276        4.5972292113
 H         -0.4454782065       -0.9518399897        0.0575429194
 H          1.1772027017        0.6698032386        1.1886730030
 H         -1.2844807885       -0.4234730108       -3.2392472331
 H          4.7282743691       -0.5593511383        2.0102311328
 H         -1.1481063081       -2.9286634754        3.7765480032
 H          3.4615337268        3.5310465380        2.2481947932
 H         -3.8748547375        0.0896222639        2.3731133809
 H         -0.8909414157        4.2790437771        0.2377377228
 H         -3.2124099864       -3.4097528891       -0.8705410783
 H          1.9188134887        2.5924729374       -2.5507634498
 H          0.8944489758       -3.8935554180       -2.0057469453
 H          2.2340743566       -1.7521299643        4.5479450249
 H          1.0815892421       -2.6276979731        0.7601248085
 H          1.4962442221        4.1265388274        3.4700159170
 H         -1.8019977039        0.8451192327       -0.6645137060
 H         -0.5024034810        1.4361018200        2.6608672798
 H         -4.3540888701       -1.3599112012       -1.2927627627
 H          2.7704347204       -0.2899326820       -0.2867063786
 H          1.0038291268       -0.7032252811       -3.9740218642
 H          2.7336856463       -3.9545738142        4.3894573669
 H          2.5701885437       -4.2087158700        1.3465011513
 H         -0.3419053847        4.7724590358        4.6104527503
 H         -1.9598623475        2.2106841288        4.2266554906
 H         -3.1617782624        2.4573673480       -1.5224709444
 H         -5.5264635928        0.5307246399       -1.6816857753
 H          4.2833735536       -1.2708223900       -1.6307803601
 H          3.2139243097       -0.7637970623       -4.4512492516
 C         -1.8866689608        0.2224451010       -9.3698578262
 C         -2.9840962482        1.1653889788       -9.8672398111
 O         -1.8925528887        0.1522932421       -7.9533553016
 C         -3.1624262160       -0.2635141299       -7.4792828301
 C         -4.2585031180        0.6806319321       -7.9769787906
 O         -4.2531415114        0.7471985483       -9.3928524627
 H         -0.9000876058        0.5893555341       -9.6530984850
 H         -2.7791646507        2.1870964190       -9.5162958644
 H         -3.3692285328       -1.2846469409       -7.8315870212
 H         -4.0953997603        1.6850411852       -7.5606922386
 H         -3.0455137971        1.1511827544      -10.9553608444
 H         -3.1020980164       -0.2520028433       -6.3912510695
 H         -5.2454397252        0.3154382870       -7.6928910158
 H         -2.0475384993       -0.7820213045       -9.7875254191