142
-211.12759255
 C          0.5001966875       -6.9318846048        1.5336647696
 C          1.6079374421       -6.8150226516        2.5747339997
 C         -3.8744219660        4.9167949620       -3.0236126201
 C         -4.1288790602        4.2114330465       -4.3517108569
 C         -2.7179055502        5.0663806596        4.8324150264
 C         -3.6460575314        4.8472509042        3.6427945439
 C          7.3869648302       -1.4490569110       -4.3013003938
 C          7.7352084472       -0.7188856542       -3.0083916345
 C         -0.5237695388       -5.8205051087        1.7248302956
 C          2.2793735163       -5.4506559211        2.4773167497
 C         -3.9000028077        3.9132708940       -1.8748932348
 C         -3.0869674007        3.1233914153       -4.5837639055
 C         -1.6643952418        3.9667139292        4.8890586395
 C         -2.8458042862        4.8131157129        2.3459745785
 C          5.9856797159       -2.0420651033       -4.2127611747
 C          6.7122883767        0.3737631859       -2.7238140120
 C         -2.2472767864       -0.3853592068        0.5802482139
 C          1.4656874460        0.4227394623        3.1726311913
 C          0.2064659903       -0.5492187681       -3.7484339671
 C          1.4149132017        1.7382113885       -0.5576369117
 C         -2.7094530120       -1.4615540829        2.6832277151
 C          3.4102564547       -0.6264062179        2.2179931074
 C         -3.9208418601        0.5284673642        2.0510467328
 C          3.2449004036        1.7849884310        2.2896900298
 C         -1.2541012576       -2.2983899505       -2.9711578506
 C          0.6325391144        3.9411624632       -1.1365725592
 C          1.1030725075       -2.7365801287       -3.2844674715
 C          2.4820378928        2.9584762652       -2.3388762546
 C         -1.0159374663       -2.4454581476        1.1711715889
 C          1.5560059651       -2.0362126900        3.0749296179
 C         -3.4456619147        1.6853079197       -0.0775637377
 C          1.1812927431        2.8739509806        3.1016965449
 C         -2.1753390421       -0.0361873232       -3.3355359753
 C         -0.4133635760        2.7461893387        0.7581136229
 C          2.6194315219       -0.9198714024       -4.0299495460
 C          3.3785530690        0.7478223024       -1.6902840582
 C         -2.0003359332       -1.4159859734        1.4799512848
 C          2.1578606352       -0.7311146224        2.8278333022
 C         -3.2051980721        0.5895267193        0.8571316240
 C          1.9872751241        1.6822788677        2.8818783798
 C         -1.0644359539       -0.9758664632       -3.3695888148
 C          0.5431563085        2.8014918618       -0.3379867740
 C          1.2909326288       -1.4157837344       -3.6994626025
 C          2.4050306706        1.8209707683       -1.5332130747
 C         -3.6527972555       -0.4912504576        2.9458136506
 C          3.9378767981        0.6275175867        1.9809243836
 C         -0.1666610869       -3.1542243614       -2.9407170678
 C          1.5844558984        3.9880635668       -2.1370033634
 C          0.1299304986       -4.4406149447        1.6195501214
 C          1.2705440450       -4.3184688300        2.6640792146
 C         -2.8404658976        2.8327613960       -2.0888921310
 C         -3.0838653518        2.1080016989       -3.4414917766
 C         -0.8412716094        3.9222449454        3.6033680328
 C         -1.7842504527        3.7169462170        2.3754147884
 C          4.9441979791       -0.9612956175       -3.9332721154
 C          5.3012931964       -0.2044369406       -2.6207870468
 Br        -4.6085301115       -0.5431017049        4.5900409337
 Br         5.6685595450        0.7746327020        1.1874092620
 Br        -0.4367796208       -4.9667521154       -2.3867507432
 Br         1.6646698851        5.5296419195       -3.2623725903
 N         -0.8474916083       -3.4449764512        1.9239979412
 N          1.9341181109       -3.0664720996        2.4514154679
 N         -2.7078547406        1.8172788051       -1.0916391827
 N          0.0268856539        2.7945678764        3.6126903714
 N         -2.0122504512        1.1815591645       -3.6217959188
 N         -0.9764175717        3.7903897345        1.1987757545
 N          3.6643717119       -1.5629596969       -3.7276024992
 N          4.3672676806        0.8628761697       -2.4679447526
 H          0.9272475006       -6.8606373886        0.5314180074
 H          0.0022123465       -7.8988150572        1.6194910186
 H          2.3518830148       -7.5980893417        2.4200807934
 H          1.1852246489       -6.9435159350        3.5738395435
 H         -2.9005487993        5.4094461570       -3.0541103645
 H         -4.6344102803        5.6823687003       -2.8556414387
 H         -5.1266871729        3.7654537816       -4.3433910794
 H         -4.0900316080        4.9320583732       -5.1699498475
 H         -2.2267497303        6.0374667275        4.7381159090
 H         -3.2923113185        5.0663560267        5.7600717495
 H         -4.3867330176        5.6472007984        3.5924047996
 H         -4.1777687745        3.9017220359        3.7706617873
 H          8.1082619091       -2.2465117638       -4.4878124744
 H          7.4337932048       -0.7492253456       -5.1387788083
 H          8.7284448169       -0.2736978187       -3.0843736663
 H          7.7466988615       -1.4282012468       -2.1781489383
 H         -1.3057081604       -5.8941214216        0.9667237538
 H         -0.9925725379       -5.9048718280        2.7067997178
 H          3.0566232654       -5.3516342412        3.2377405094
 H          2.7478479620       -5.3314907707        1.4990168638
 H         -4.8890722480        3.4502551267       -1.8176712044
 H         -3.6986007714        4.4227142010       -0.9293118447
 H         -2.0910068457        3.5632625544       -4.6518761015
 H         -3.2877980200        2.5968744152       -5.5190189890
 H         -2.1396849096        2.9941885778        5.0275584312
 H         -0.9860739915        4.1313660702        5.7286344764
 H         -2.3466820815        5.7697764675        2.1835821834
 H         -3.5062417767        4.6319038209        1.4956578420
 H          5.9384428212       -2.7792599794       -3.4096221678
 H          5.7239973719       -2.5437643298       -5.1466637253
 H          6.7206253699        1.1182410039       -3.5213726025
 H          6.9466510830        0.8788909858       -1.7850365149
 H         -1.7078922068       -0.3188712501       -0.3529824145
 H          0.4961717441        0.3682465414        3.6423584632
 H          0.3282161958        0.4770191869       -4.0557399703
 H          1.3425407528        0.8544345927        0.0602355985
 H         -2.5060982006       -2.2589255020        3.3797064608
 H          3.9410238125       -1.5262348223        1.9508936085
 H         -4.6719028527        1.2707837342        2.2758326917
 H          3.6675692582        2.7534153126        2.0684037820
 H         -2.2344399852       -2.6479705843       -2.6838656211
 H         -0.0392964697        4.7636494329       -0.9505753938
 H          1.9523465713       -3.3994510202       -3.2428820923
 H          3.2481356922        3.0096025127       -3.0957062771
 H         -0.4485645410       -2.3039864983        0.2383034088
 H          0.7426849623       -2.0535709978        3.8135204262
 H         -4.2682421529        2.3589370779        0.1877641767
 H          1.6120130021        3.8253344091        2.7578469652
 H         -3.1457627676       -0.4436560307       -3.0142075288
 H         -0.5871454347        1.7518137510        1.1906405454
 H          2.6503102193        0.0588930035       -4.5279439494
 H          3.2163494827       -0.1424950327       -1.0635507809
 H          0.5678567834       -4.2967405654        0.6169965337
 H          0.8035050512       -4.3670883412        3.6617113263
 H         -1.8467667449        3.2940241808       -2.1534191540
 H         -4.0630190794        1.5966182388       -3.3740435671
 H         -0.2974896184        4.8706080255        3.4495388083
 H         -2.2444905703        2.7221725873        2.4929137222
 H          4.9232190648       -0.2146055410       -4.7445156791
 H          5.2369220317       -0.9302025676       -1.7924257948
 C         -6.1827503958       -3.3964436102        2.5390951593
 C         -5.3273885725       -4.6616982299        2.5967151051
 O         -5.5501474483       -2.4063635300        1.7394799069
 C         -5.3030995749       -2.9019701187        0.4360949521
 C         -4.4576059138       -4.1762595685        0.4921073460
 O         -5.0917301806       -5.1580520206        1.2896352412
 H         -6.3047242632       -2.9594637596        3.5298782883
 H         -4.3668905274       -4.4379562568        3.0810709197
 H         -6.2603605464       -3.1170544313       -0.0606736311
 H         -3.4674297688       -3.9434752296        0.9103833356
 H         -5.8423442601       -5.4554354532        3.1373818183
 H         -4.7778570300       -2.1073503200       -0.0947522603
 H         -4.3495873558       -4.6160005231       -0.4996641551
 H         -7.1672002718       -3.6351336030        2.1128589206