142
-211.12901272
 C          5.2733237142       -5.8415493808        3.6024707657
 C          4.4444583149       -6.4755182768        2.4900780272
 C         -3.2332498617        3.4905970832        6.2520513475
 C         -4.1633033671        2.8581822213        5.2216576929
 C         -5.5461643390        2.5252752713       -2.5007025686
 C         -5.8518906117        1.5560962885       -3.6380688279
 C          7.1493445576       -0.0829269801       -3.0786634279
 C          6.7776048806       -0.9732841860       -4.2599728240
 C          5.3216411768       -4.3276816467        3.4306321401
 C          3.0357938440       -5.8944965975        2.4805066172
 C         -1.8437305401        2.8690171209        6.1682118142
 C         -3.5913823674        3.0200908531        3.8177644312
 C         -5.0770488602        1.7678559235       -1.2634717003
 C         -4.6248870431        0.7115124614       -3.9615361810
 C          5.9638182217        0.7843514212       -2.6730624261
 C          5.5747823646       -1.8421966008       -3.9109812954
 C          2.1726963411        0.6928696408        3.9342208488
 C         -0.5181161124       -1.6341252874        0.6615967554
 C          1.0549646535        1.2548180319        0.4493167502
 C         -0.3085709618       -1.8084281147       -3.0334353210
 C          4.1800447788        0.4596438466        2.6237803906
 C         -0.8971383446       -2.8613563280        2.6976717421
 C          3.0570162893        2.5952891391        2.7508613556
 C         -2.6330263761       -1.4394896191        1.7973227103
 C         -0.4292918094        3.0586536898       -0.1368476155
 C         -1.1919621336       -3.7100203934       -1.8481917305
 C          1.4116650523        2.4782538822       -1.5929882828
 C          1.1822137531       -3.5358456498       -2.2621812349
 C          3.2322441344       -1.5255970706        3.7666076894
 C          1.2782712596       -3.0825696930        1.5317809731
 C          0.9118901234        2.8222281194        3.9422457280
 C         -2.2503531218       -0.1802388986       -0.3040026667
 C         -0.7941594384        1.8071887262        1.9727733694
 C         -2.7174388359       -1.8777098238       -2.4723508441
 C          2.9556412430        0.6342833921       -0.9938269864
 C          2.1129112815       -1.5411674625       -3.4025160886
 C          3.2056224654       -0.1029871132        3.4525576067
 C         -0.0623823869       -2.5220941921        1.6313085586
 C          2.0798997130        2.0363588949        3.5735224143
 C         -1.7975015729       -1.0892758693        0.7373346807
 C         -0.0554097656        2.0427420158        0.7419463793
 C         -1.3968608271       -2.4889390928       -2.4891605886
 C          1.7958188201        1.4680722669       -0.7092227356
 C          0.9802381601       -2.3142741568       -2.9102085992
 C          4.0936126382        1.7980662876        2.2986829231
 C         -2.1635601735       -2.3126647908        2.7610640137
 C          0.3066940603        3.2509178458       -1.2914743422
 C          0.0930855087       -4.2145364739       -1.7546847650
 C          3.9149703147       -3.7306041208        3.4257334952
 C          3.0695528184       -4.3758350480        2.2974853942
 C         -1.2502601279        3.0402100010        4.7722335075
 C         -2.2055536975        2.3909024471        3.7171804749
 C         -3.8408418519        0.9302926955       -1.5737561351
 C         -4.1559816365       -0.0687377067       -2.7359429520
 C          4.7523196689       -0.0767704292       -2.3101033692
 C          4.3759510397       -0.9836125679       -3.5100359795
 Br         5.4216873605        2.5687940515        1.1617241256
 Br        -3.2989693280       -2.7642321734        4.2300364944
 Br        -0.2288944569        4.6212865265       -2.5099824454
 Br         0.3670689309       -5.8817396021       -0.8625432985
 N          3.9922433428       -2.3271202375        3.1548088561
 N          1.7407937432       -3.8643796286        2.4066059678
 N         -0.0146141601        2.3422471468        4.6586350266
 N         -3.4628173178        0.1556007349       -0.4356011590
 N         -1.6404593320        2.6298186127        2.4277301375
 N         -2.9351549448       -0.7497897900       -3.0039109366
 N          3.6375023683        0.7754980996       -2.0453127861
 N          3.3012123682       -1.8296182150       -3.0877335435
 H          4.8290168736       -6.0835387989        4.5705091678
 H          6.2886202273       -6.2414166551        3.5881316158
 H          4.3880487470       -7.5557317604        2.6328625897
 H          4.9218447842       -6.2875596454        1.5259003930
 H         -3.1620550938        4.5650990974        6.0680497134
 H         -3.6348069241        3.3463498810        7.2563096356
 H         -4.2837785844        1.7954808729        5.4438154863
 H         -5.1477201539        3.3263543376        5.2695681996
 H         -4.7664845796        3.2217996580       -2.8166358025
 H         -6.4372724435        3.1053031389       -2.2560300154
 H         -6.1574732921        2.1084705680       -4.5276722774
 H         -6.6756197435        0.9006811317       -3.3454357390
 H          7.9916894556        0.5584350845       -3.3423806708
 H          7.4511338274       -0.7046685533       -2.2329506645
 H          7.6211472978       -1.6113591367       -4.5286857350
 H          6.5372695499       -0.3499888461       -5.1241534233
 H          5.8922420435       -3.8693169777        4.2410040563
 H          5.8082562717       -4.0698967204        2.4884343189
 H          2.4470745908       -6.3299691320        1.6708817712
 H          2.5289078592       -6.1151265084        3.4211791498
 H         -1.8917909838        1.8026132129        6.3944782476
 H         -1.1723564287        3.3374947816        6.8908132498
 H         -3.5112090838        4.0771459737        3.5590358789
 H         -4.2422448005        2.5410662794        3.0841249719
 H         -5.8638149510        1.1031640716       -0.9030428468
 H         -4.8294068903        2.4647858547       -0.4606343663
 H         -3.8063044946        1.3483166247       -4.3003622046
 H         -4.8519866378        0.0018538325       -4.7595557836
 H          5.6806762621        1.4461141723       -3.4930298121
 H          6.2202727758        1.4053484190       -1.8126689940
 H          5.8168034362       -2.5055404789       -3.0788777689
 H          5.2905401545       -2.4617477962       -4.7640492120
 H          1.4051521873        0.2799843113        4.5703307815
 H          0.1227273586       -1.3693310281       -0.1674994381
 H          1.3481221548        0.4751687989        1.1380485202
 H         -0.4894336204       -0.8645414776       -3.5239122477
 H          4.9772874989       -0.1654404139        2.2546432509
 H         -0.5347037900       -3.5481393281        3.4454541810
 H          2.9984798738        3.6339774503        2.4622677158
 H         -3.6235968249       -1.0164733518        1.8440679982
 H         -1.2873388446        3.6665787443        0.1008205431
 H         -2.0245167372       -4.2482741195       -1.4207059735
 H          1.9897866638        2.6343909255       -2.4894474173
 H          2.1855338612       -3.9200140347       -2.1709162963
 H          2.5276030517       -1.8562856474        4.5421837581
 H          1.8551769171       -2.7792446024        0.6435975085
 H          0.8592352193        3.8346932904        3.5156306579
 H         -1.4631830818        0.1884845965       -0.9780387425
 H         -0.5560323538        0.8651205604        2.4882474957
 H         -3.4956547431       -2.4279603940       -1.9232545968
 H          3.1954074268       -0.1220471225       -0.2294683995
 H          1.8626903935       -0.6762016507       -4.0322460182
 H          3.4005828938       -3.9342687487        4.3801975315
 H          3.5334453414       -4.1124442691        1.3304896346
 H         -1.1511329119        4.1090491476        4.5144516604
 H         -2.2455966671        1.3140171172        3.9494976884
 H         -3.0124161595        1.5678077125       -1.9236214682
 H         -4.9453157604       -0.7526674596       -2.3782591848
 H          4.9845874097       -0.7288726245       -1.4495838342
 H          4.0733272991       -0.3229406077       -4.3400967399
 C         -8.9853010891        4.6474460704       -7.2396238336
 C         -8.4710454533        3.8736175522       -6.0245852233
 O         -8.3686694439        5.9216967106       -7.3162510968
 C         -6.9576521628        5.7913075250       -7.3701212945
 C         -6.4419921967        5.0170431437       -6.1560049868
 O         -7.0600849190        3.7426759032       -6.0783029732
 H        -10.0568252347        4.8312096556       -7.1602179985
 H         -8.7550300282        4.4029322921       -5.1037828989
 H         -6.6726905448        5.2635102127       -8.2917927217
 H         -6.6561668024        5.5843540447       -5.2390638875
 H         -8.8716619891        2.8599320585       -6.0098569241
 H         -6.5578548008        6.8052695676       -7.3840468227
 H         -5.3707754731        4.8329168182       -6.2373648808
 H         -8.7696074654        4.0790109066       -8.1559821193