142
-211.12693604
 C          2.3588448956       -7.0253830265        1.6675360035
 C          2.1176731967       -7.0057057311        0.1614745480
 C         -5.1241781301        3.1965714468        3.9423632397
 C         -5.4453553005        3.2127942223        2.4512099986
 C         -2.6551194872        5.6089040278       -4.6207190403
 C         -2.5024076133        5.1026555418       -6.0515264997
 C          8.0146853982       -0.6585312121       -0.6071175666
 C          8.1846961169       -0.9991539333       -2.0840812224
 C          2.6856037448       -5.6241240919        2.1715184332
 C          0.9931032978       -6.0371602886       -0.1847355040
 C         -3.9736002099        2.2385065137        4.2303734181
 C         -4.2108874640        3.5999457240        1.6445192627
 C         -2.9755825252        4.4538440333       -3.6787061736
 C         -1.4150231404        4.0367529245       -6.1268864534
 C          6.9249133860        0.3911974235       -0.4264745451
 C          6.8664741512       -1.4925890931       -2.6690587169
 C          0.3523813553       -0.2738618472        3.3244911865
 C         -0.5369104779       -0.5666782069       -1.4662729523
 C          1.2412666374        1.5157038189        0.2312988577
 C          1.4452366261        0.1617843132       -4.4630321095
 C          2.7032919658       -0.6952511311        3.0133141694
 C         -2.0448917839       -2.0789701942       -0.3555644820
 C          1.9251711197        1.5429810306        3.4860986112
 C         -2.8715408888       -0.0050497466       -1.2844979253
 C          0.5340770626        3.7874219075       -0.1416136464
 C         -0.1713751596       -1.6158196257       -4.6335920753
 C          2.7602916686        3.0880140311       -0.7758766196
 C          2.0763266061       -2.0898862027       -3.8855777554
 C          1.0828568579       -2.5529074040        2.7447671857
 C          0.3533910769       -2.6759893235       -0.5524397534
 C         -0.4856622469        2.0336180870        3.6301590731
 C         -1.3211183293        1.5550972857       -2.4298445118
 C         -1.0319117500        2.1688906818        0.8980290635
 C         -0.8947424443        0.6991932514       -5.0651761558
 C          3.5023335999        0.7545115706       -0.3893216645
 C          3.7210436386       -0.2569494038       -3.6119504556
 C          1.3867785661       -1.1618210882        3.0529504736
 C         -0.7579327836       -1.7669586570       -0.7973457138
 C          0.6097934875        1.0819446700        3.5214795860
 C         -1.5846067284        0.3165107142       -1.7137225344
 C          0.2590228782        2.4992980436        0.3155992439
 C          0.1507908359       -0.2649394741       -4.7570393873
 C          2.4917359940        1.8002110986       -0.3086517669
 C          2.4042980054       -0.7372017282       -4.0108282721
 C          2.9479278018        0.6436230456        3.2418454811
 C         -3.0742247311       -1.1912868363       -0.6035328845
 C          1.7774864868        4.0549127775       -0.6841889421
 C          0.8008237237       -2.5045305348       -4.2101362399
 C          1.5609628488       -4.6459660239        1.8355133379
 C          1.3190684376       -4.6244780288        0.3044681372
 C         -2.7258871479        2.6284503805        3.4420727471
 C         -3.0611644115        2.6345632234        1.9137149151
 C         -1.8878939009        3.3860274149       -3.7352781692
 C         -1.7318227900        2.8646251892       -5.2018063042
 C          5.5927608390       -0.0964484245       -1.0000835331
 C          5.7653289425       -0.4462616599       -2.5003429797
 Br         4.7464100075        1.2858218918        3.1802002878
 Br        -4.8286294969       -1.6045985176        0.0286704097
 Br         2.1407273631        5.8130972181       -1.3382594265
 Br         0.3480399693       -4.3522093956       -4.0336392337
 N          1.9398561654       -3.3220716742        2.2268321793
 N          0.2014823271       -3.7710417237        0.0543944027
 N         -1.6954309662        1.6611608772        3.6123948408
 N         -2.2432341530        2.2676503836       -2.9212279885
 N         -1.8851118850        3.0469580978        1.2165496056
 N         -0.6520425546        1.9369350259       -5.1709110504
 N          4.6334661628        0.9575939256       -0.9084782434
 N          4.5216684627       -0.9846418950       -2.9610675505
 H          1.4645271920       -7.3944196120        2.1746389663
 H          3.1836511653       -7.6989358786        1.9061595483
 H          1.8540333133       -8.0046268320       -0.1895058224
 H          3.0320369720       -6.6989474295       -0.3512646297
 H         -4.8486801719        4.2026720415        4.2669604586
 H         -6.0035455261        2.8881034876        4.5099614362
 H         -5.7852422338        2.2220859215        2.1411486368
 H         -6.2489656731        3.9230074623        2.2503213769
 H         -1.7267251530        6.0889159353       -4.3031092773
 H         -3.4529883789        6.3514863573       -4.5703617748
 H         -2.2455749543        5.9298826795       -6.7151330960
 H         -3.4501721360        4.6789415899       -6.3916280995
 H          8.9524445036       -0.2782367317       -0.1992483827
 H          7.7469504963       -1.5603995702       -0.0522191557
 H          8.9471734183       -1.7703768959       -2.2055759129
 H          8.5138973519       -0.1105996116       -2.6273688852
 H          2.8299915304       -5.6316389160        3.2538836150
 H          3.6065738127       -5.2620166926        1.7113861614
 H          0.8339879071       -6.0055136401       -1.2642254440
 H          0.0606175822       -6.3562159863        0.2833684685
 H         -4.2511609807        1.2196048993        3.9554195029
 H         -3.7286344388        2.2464909477        5.2944478825
 H         -3.8856115587        4.6081451276        1.9061412894
 H         -4.4337300061        3.5844845178        0.5762111081
 H         -3.9269841036        3.9938195495       -3.9505619140
 H         -3.0551619866        4.8118456941       -2.6506562581
 H         -0.4516084290        4.4571770075       -5.8341989919
 H         -1.3223616606        3.6585824487       -7.1470386536
 H          7.2006088860        1.3151635282       -0.9371742605
 H          6.7857373662        0.6207862558        0.6316546431
 H          6.5502563106       -2.4088901303       -2.1676456628
 H          6.9790376461       -1.7123028203       -3.7327067385
 H         -0.6726468234       -0.6092646971        3.3547975988
 H          0.4580079445       -0.3184113532       -1.8076131075
 H          1.0292217454        0.5214751659        0.5982773718
 H          1.6733358547        1.2115701952       -4.5638814876
 H          3.4993243657       -1.3908596809        2.8011963943
 H         -2.2061995565       -3.0078539781        0.1673444370
 H          2.1404380996        2.5903379384        3.6354224273
 H         -3.6771390405        0.6827514900       -1.4846623288
 H         -0.2311505649        4.5433570572       -0.0683562379
 H         -1.1698174484       -1.9610210678       -4.8561004610
 H          3.7315046294        3.2994586531       -1.1933268129
 H          2.8271187928       -2.7796202968       -3.5347640628
 H          0.0528919672       -2.8735978609        2.9535031539
 H          1.3309866014       -2.3421676485       -0.9353090489
 H         -0.1991128527        3.0949103277        3.6665376410
 H         -0.2584254550        1.8236445653       -2.5232665620
 H         -1.2125053477        1.0946422701        1.0506864828
 H         -1.9142732782        0.2930916002       -5.1423944850
 H          3.2093619307       -0.2210920113        0.0302122179
 H          3.9536928851        0.7822979369       -3.8822844195
 H          0.6170072875       -4.9576975103        2.3138310266
 H          2.2374837827       -4.2501824073       -0.1816266789
 H         -2.3914457430        3.6456366481        3.7106200364
 H         -3.3458142947        1.6027778034        1.6500428666
 H         -0.9107123010        3.8055573060       -3.4449381787
 H         -2.6851173246        2.3856845665       -5.4859017362
 H          5.2547891809       -1.0064941102       -0.4732723014
 H          6.0276372831        0.4861228327       -3.0285025697
 C         -8.7684012162       -3.5926682497        6.6720976850
 C         -8.1236988885       -4.4829757480        7.7366129641
 O         -9.1329067858       -2.3386312274        7.2247091579
 C         -8.0040086714       -1.6965937841        7.7931283103
 C         -7.3601285932       -2.5863865716        8.8585621012
 O         -6.9954845775       -3.8409532739        8.3074288996
 H         -9.6886600229       -4.0392680533        6.2955569962
 H         -8.8581130197       -4.7036130814        8.5245628722
 H         -7.2697004302       -1.4782684667        7.0045586170
 H         -8.0686388728       -2.7403696804        9.6852400674
 H         -7.7571229394       -5.4118459521        7.2991995733
 H         -8.3692707146       -0.7667809177        8.2295938508
 H         -6.4399350435       -2.1401276128        9.2360121866
 H         -8.0610931138       -3.4380127511        5.8447332761