142
-211.12786531
 C          0.7515599691       -7.0311220249        1.5179251966
 C          0.4111831771       -6.9468178970        0.0334175890
 C         -4.4972573290        4.3578478989        4.5082247178
 C         -4.9336265153        4.4771417503        3.0515234190
 C         -2.4014279403        6.5104665481       -4.0526961703
 C         -2.4063318052        6.0564248301       -5.5088277031
 C          7.4220273063       -1.4927769502       -1.1433331835
 C          7.4074991474       -1.8202551938       -2.6329217156
 C          1.3615469928       -5.7183667116        1.9955080679
 C         -0.5429249608       -5.7876903855       -0.2280815201
 C         -3.5252758091        3.1960313020        4.6802430042
 C         -3.7210020240        4.6582485342        2.1454905014
 C         -2.8578424490        5.3781420203       -3.1395148958
 C         -1.5123068265        4.8347965856       -5.6883101827
 C          6.5364147488       -0.2864065085       -0.8560836459
 C          5.9815220865       -2.0807400706       -3.1043454304
 C          0.1499221706       -0.0574593849        3.3607981036
 C         -1.1792201385       -0.0767692902       -1.2743525072
 C          1.1616805633        1.7195371643        0.2528701843
 C          0.7679801310        0.4822809869       -4.3807127463
 C          2.3480552724       -0.9073970630        2.8635541269
 C         -2.8739007302       -1.3956855335       -0.1866317511
 C          2.0498209892        1.4213904241        3.4343091484
 C         -3.3911162698        0.8292883568       -0.9791743746
 C          0.8246986048        4.0898355255       -0.0098535007
 C         -1.1237475935       -1.0064999473       -4.4629566496
 C          2.8553451232        3.0548486915       -0.8166245882
 C          1.0676221322       -1.8606093501       -3.9093374074
 C          0.3900155089       -2.4187610451        2.6987396924
 C         -0.6076718951       -2.3479668220       -0.5014869420
 C         -0.2038695392        2.3563993885        3.7769562545
 C         -1.6505461006        2.1875639770       -2.1088954178
 C         -0.9176275402        2.7202495745        1.1024336514
 C         -1.4909207846        1.4088920733       -4.7843562880
 C          3.2212011227        0.6194208065       -0.5408311708
 C          3.0064449247       -0.3254671760       -3.7397069435
 C          0.9728341072       -1.1169261801        2.9966972088
 C         -1.5662805910       -1.2624340186       -0.6572301005
 C          0.6764048805        1.2176971518        3.5618616252
 C         -2.0822098960        0.9707730323       -1.4384492673
 C          0.3673079510        2.8491736895        0.4327669880
 C         -0.5968189614        0.2790358046       -4.5800089698
 C          2.4053848143        1.8130591318       -0.3644345309
 C          1.6005670776       -0.5744689851       -4.0308313641
 C          2.8608303727        0.3525715447        3.0960682766
 C         -3.7588688614       -0.3480272745       -0.3541880218
 C          2.0565435827        4.1671535233       -0.6329984096
 C         -0.2795364949       -2.0536341709       -4.1383649507
 C          0.4083341529       -4.5496858863        1.7489198045
 C          0.0607020994       -4.4620476382        0.2404305118
 C         -2.2966047841        3.3721972212        3.7916519508
 C         -2.7468601951        3.4945842996        2.2982768071
 C         -1.9667665693        4.1507847032       -3.3016752415
 C         -1.9708515972        3.6848459246       -4.7953650734
 C          5.0989060954       -0.5383955274       -1.3152985540
 C          5.0832200156       -0.8756109430       -2.8286696157
 Br         4.7400265483        0.6430538121        2.9103772593
 Br        -5.5436145118       -0.5254030883        0.3048186141
 Br         2.6659512907        5.8636057545       -1.2671605966
 Br        -1.0117470430       -3.8101034331       -3.9681026055
 N          1.0495509698       -3.3232588728        2.1144550600
 N         -0.9091433321       -3.4262803032        0.0788770793
 N         -1.4602217452        2.2217957849        3.8515230769
 N         -2.4639454710        3.0656144988       -2.5181588645
 N         -1.5727027031        3.7195467902        1.5176981086
 N         -1.0572101700        2.5953398341       -4.8644782354
 N          4.3354146734        0.6541287351       -1.1305788100
 N          3.7337995676       -1.1950969474       -3.1837447010
 H         -0.1562316847       -7.2396033381        2.0884024795
 H          1.4561110172       -7.8453131599        1.6953341505
 H         -0.0519601729       -7.8769915505       -0.2991989167
 H          1.3267085873       -6.8011987154       -0.5439487527
 H         -4.0129987046        5.2858203298        4.8209599541
 H         -5.3675125426        4.1996790396        5.1471799248
 H         -5.4738088745        3.5741366752        2.7583064909
 H         -5.6073397552        5.3270225858        2.9316143578
 H         -1.3920802351        6.8190372659       -3.7712901245
 H         -3.0637613176        7.3683466229       -3.9264274546
 H         -2.0522920449        6.8628244404       -6.1530175527
 H         -3.4265152701        5.8071423885       -5.8097180295
 H          8.4405274062       -1.2785432658       -0.8159331949
 H          7.0597364973       -2.3530511030       -0.5763002237
 H          8.0216485966       -2.7006773616       -2.8294101736
 H          7.8287319183       -0.9830319026       -3.1938938282
 H          1.5878119163       -5.7665027882        3.0625006439
 H          2.2934255019       -5.5200140345        1.4632989802
 H         -0.7685525342       -5.7104677922       -1.2933247261
 H         -1.4824455770       -5.9433193890        0.3043507385
 H         -4.0098221113        2.2545925951        4.4163802757
 H         -3.1951554091        3.1260186577        5.7187447525
 H         -3.1968126667        5.5830962272        2.3916714829
 H         -4.0317350379        4.7137808869        1.1006787111
 H         -3.8851492941        5.0927065692       -3.3716001003
 H         -2.8225564551        5.6945835181       -2.0955058665
 H         -0.4802245249        5.0801695867       -5.4327293847
 H         -1.5317891826        4.4970958858       -6.7265539492
 H          6.9140517362        0.5934918623       -1.3791666775
 H          6.5265146570       -0.0641555690        0.2126705735
 H          5.5647688367       -2.9461645724       -2.5863433978
 H          5.9655697150       -2.2896474397       -4.1760139387
 H         -0.9154994920       -0.1931911788        3.4637976629
 H         -0.1685625719        0.0323335712       -1.6415112787
 H          0.8088618039        0.7613765788        0.6073204932
 H          1.1548744756        1.4851427433       -4.4745341794
 H          2.9783640110       -1.7349142794        2.5797955355
 H         -3.1638547970       -2.3164148434        0.2933006093
 H          2.4722274798        2.4032179516        3.5865482758
 H         -4.0847195814        1.6432293652       -1.1161395994
 H          0.2046578293        4.9592275862        0.1387427722
 H         -2.1787471210       -1.1794347600       -4.6135225616
 H          3.8192154756        3.1173731033       -1.2954327482
 H          1.7211405940       -2.6739289352       -3.6372815603
 H         -0.6636373522       -2.5465027793        2.9828622649
 H          0.3917511785       -2.1633433372       -0.9265998369
 H          0.2840543007        3.3414786980        3.8144370550
 H         -0.5635600015        2.2857334581       -2.2459869645
 H         -1.2759823768        1.6885915583        1.2331393301
 H         -2.5650880499        1.1737471546       -4.8104877577
 H          2.8000755656       -0.3094577399       -0.1242834966
 H          3.3792804626        0.6733958817       -4.0054478533
 H         -0.5383317173       -4.6937717684        2.2964117496
 H          0.9915283704       -4.2432287004       -0.3119147664
 H         -1.7529144283        4.2977516900        4.0494217156
 H         -3.2315102399        2.5396849423        2.0363703294
 H         -0.9204308880        4.3886823207       -3.0487731646
 H         -3.0027698480        3.3809058313       -5.0431941250
 H          4.6626242250       -1.3943976906       -0.7707973565
 H          5.4473298041        0.0150684252       -3.3682150527
 C         -3.6970942896       -7.5755792883        7.7399397390
 C         -3.7784783548       -6.1129432992        7.2987048250
 O         -3.1899433255       -8.3843769807        6.6919584670
 C         -1.9177256812       -7.9202492813        6.2735530861
 C         -1.9973328673       -6.4573176051        5.8327617445
 O         -2.5065417822       -5.6469850534        6.8784308659
 H         -4.6866968986       -7.9668760479        7.9761021585
 H         -4.4961981835       -6.0176706752        6.4711183116
 H         -1.2006692320       -8.0155037713        7.1017905709
 H         -2.6510512493       -6.3739188695        4.9523091408
 H         -4.0791886796       -5.4715743725        8.1271907003
 H         -1.6162532184       -8.5619050864        5.4454640833
 H         -1.0062829271       -6.0663086122        5.6022696686
 H         -3.0414686744       -7.6588387632        8.6188501636