142
-211.12826942
 C          4.0113813377       -6.6880537759        2.5054758314
 C          3.7613729711       -6.8987641316        1.0157753367
 C         -5.2422776502        2.2924917264        4.0916390714
 C         -5.6519559583        2.0073091372        2.6508775685
 C         -3.7466640087        3.9240086421       -4.6566460862
 C         -3.5040062763        3.3619445047       -6.0537589498
 C          8.1916798946        0.5008642472       -0.8391680970
 C          8.3647826331        0.0164849614       -2.2751290709
 C          4.0381108351       -5.1995403706        2.8324107896
 C          2.4523309802       -6.2392958283        0.5991501696
 C         -3.9403992438        1.5713378680        4.4211980641
 C         -4.5547215271        2.4499867547        1.6897028506
 C         -3.8030372922        2.7973270450       -3.6310677773
 C         -2.2163960723        2.5463141435       -6.0845133775
 C          6.9108866436        1.3152767054       -0.7030805549
 C          7.1572090789       -0.8077689571       -2.7064613204
 C          0.7256798405       -0.3025775440        3.4707573506
 C         -0.2822296803       -1.3818606506       -1.1404306054
 C          1.1330994031        1.2905133894        0.1679274392
 C          1.4310229872       -0.5034262010       -4.2907436744
 C          3.1026760323       -0.3253744840        3.0794407103
 C         -1.3925776059       -3.1171571450        0.1043827125
 C          1.9419313215        1.7739350933        3.3611942032
 C         -2.6831388175       -1.3659273613       -0.9514673214
 C         -0.0470905293        3.3094878770       -0.4081105972
 C          0.2196542867       -2.5834753087       -4.2040495717
 C          2.2560078318        3.0157128656       -1.0809781956
 C          2.5442064448       -2.5064754877       -3.5492881930
 C          1.8550766730       -2.4643068502        3.0979907512
 C          1.0779416320       -3.1513517766       -0.0923133224
 C         -0.5080509467        1.8425062582        3.5876820869
 C         -1.5397533326        0.4212949359       -2.2379286065
 C         -1.2037299135        1.5466376689        0.8942337395
 C         -0.9892499075       -0.5223121343       -4.8066245716
 C          3.4858706208        0.9484534681       -0.4896725673
 C          3.7786529132       -0.3567506234       -3.5561014277
 C          1.8969234608       -1.0141938674        3.2372628228
 C         -0.2149269631       -2.5462816254       -0.3817636294
 C          0.7359777685        1.0910607719        3.5149786684
 C         -1.5079251253       -0.7862994948       -1.4278824720
 C         -0.0304841412        2.0548323571        0.2001096793
 C          0.2452829187       -1.2147953531       -4.4686710275
 C          2.2788160472        1.7630766339       -0.4649984273
 C          2.5754826962       -1.1355835102       -3.8185580920
 C          3.1042621986        1.0522976734        3.1554203700
 C         -2.6016662330       -2.5156496993       -0.1874639766
 C          1.0945685157        3.7627980533       -1.0426167434
 C          1.3722893520       -3.2049824762       -3.7570887346
 C          2.7298915489       -4.5228097404        2.4244023482
 C          2.4676930817       -4.7417198212        0.9118329804
 C         -2.8217543429        2.0268531058        3.4878099548
 C         -3.2329696321        1.7558410176        2.0026569384
 C         -2.5123580613        1.9847406689       -3.6435917609
 C         -2.2678749994        1.4023367600       -5.0750581449
 C          5.6905241235        0.4931336711       -1.1222662582
 C          5.8678371247        0.0028223084       -2.5824514340
 Br         4.7504405032        1.9962551872        2.9339945540
 Br        -4.2114073876       -3.2902104299        0.4902875445
 Br         1.0567238364        5.4667459066       -1.9062915422
 Br         1.3258135766       -5.0786552052       -3.3855781794
 N          2.8375443228       -3.1121299195        2.6403225289
 N          1.1845241541       -4.1904758850        0.6141731727
 N         -1.6325463757        1.2724629399        3.7003791076
 N         -2.6050417741        0.8805672256       -2.7425475583
 N         -2.1926687712        2.2818370942        1.1786475497
 N         -1.0167564950        0.7261702732       -5.0138108227
 N          4.5315332230        1.3260654443       -1.0850009245
 N          4.7466329442       -0.8296683546       -2.8974317860
 H          3.2186358535       -7.1725468798        3.0797726169
 H          4.9616107316       -7.1403759912        2.7942533664
 H          3.7160799596       -7.9651436390        0.7895342008
 H          4.5847866500       -6.4673020689        0.4424275521
 H         -5.1014130564        3.3678256505        4.2226481220
 H         -6.0291510707        1.9744771616        4.7767633849
 H         -5.8334092794        0.9371455377        2.5290708738
 H         -6.5763696830        2.5351405027        2.4133332671
 H         -2.9389912065        4.6115589025       -4.3956568964
 H         -4.6841647518        4.4819113560       -4.6360842230
 H         -3.4342852684        4.1760878377       -6.7768318788
 H         -4.3439215161        2.7256183140       -6.3418933742
 H          9.0432821854        1.1166022213       -0.5458188686
 H          8.1493647053       -0.3582294417       -0.1661305118
 H          9.2678231292       -0.5904017998       -2.3596011062
 H          8.4732766072        0.8769683141       -2.9390881111
 H          4.1908577417       -5.0459557045        3.9026836030
 H          4.8574786410       -4.7114039156        2.3019825834
 H          2.2808536240       -6.3700498084       -0.4710001517
 H          1.6144024182       -6.6918893742        1.1315359685
 H         -4.0655103080        0.4926824435        4.3151005372
 H         -3.6394944065        1.7772851381        5.4503296917
 H         -4.4015189046        3.5281024618        1.7600761438
 H         -4.8315974349        2.2143698564        0.6604016412
 H         -4.6368575984        2.1273943900       -3.8468587910
 H         -3.9464289231        3.2031307204       -2.6281222255
 H         -1.3609747111        3.1799441664       -5.8446106006
 H         -2.0558377832        2.1249595102       -7.0790090507
 H          6.9585173645        2.2039728913       -1.3342833282
 H          6.7729498431        1.6427751934        0.3291078194
 H          7.0654245152       -1.6985413130       -2.0827262021
 H          7.2669065961       -1.1323101689       -3.7432587589
 H         -0.2182677506       -0.8115322505        3.5900160714
 H          0.6258057631       -0.9362070599       -1.5211802410
 H          1.1460546169        0.3233519739        0.6501997369
 H          1.4285416680        0.5551279103       -4.4997400845
 H          4.0051379208       -0.8868587925        2.8982100420
 H         -1.3307292943       -4.0176419943        0.6938798732
 H          1.9652215186        2.8528790555        3.3916476562
 H         -3.6278056335       -0.9008123263       -1.1830369810
 H         -0.9515263311        3.8952175950       -0.3731981906
 H         -0.6910525651       -3.1478951851       -4.3368271377
 H          3.1483934936        3.3722668746       -1.5695239940
 H          3.4364976995       -2.9881762556       -3.1827682170
 H          0.9094746841       -2.9462946136        3.3821017462
 H          1.9500696814       -2.6404211400       -0.5306533651
 H         -0.4140578153        2.9332098947        3.4783736250
 H         -0.5643167933        0.9068700190       -2.3885581685
 H         -1.1640390402        0.4821205207        1.1681867288
 H         -1.9002103781       -1.1386546563       -4.8139631008
 H          3.4224843405       -0.0120556140        0.0460778643
 H          3.7732059543        0.6729819171       -3.9394694161
 H          1.8769643796       -4.9570038505        2.9730225906
 H          3.2730649981       -4.2369025728        0.3494357753
 H         -2.6481660921        3.1126049492        3.5882338347
 H         -3.3262031609        0.6626263703        1.8956440971
 H         -1.6446806636        2.6239753719       -3.4119305218
 H         -3.1028212870        0.7158053630       -5.2990943766
 H          5.5801583032       -0.3946813355       -0.4747818447
 H          5.9050914055        0.8971860586       -3.2272598180
 C         -9.1011628238        3.7592141303        5.2745473115
 C        -10.2467876643        4.1411216816        6.2135239693
 O         -8.4668169763        2.5704353388        5.7161929639
 C         -9.4043997845        1.5111659615        5.8149087127
 C        -10.5505619960        1.8932468314        6.7534433908
 O        -11.1841803206        3.0820691100        6.3108690318
 H         -8.3317369363        4.5309817725        5.2662187706
 H         -9.8448565386        4.3693097689        7.2114357531
 H         -9.8057107935        1.2824611661        4.8171072222
 H        -10.1594081509        2.0424692700        7.7703797479
 H        -10.7964310099        5.0005503780        5.8289850633
 H         -8.8555634061        0.6518021861        6.2006423016
 H        -11.3208845135        1.1221017453        6.7613658314
 H         -9.4944101356        3.6098320650        4.2587137034