142
-211.12754018
 C          1.5621711899       -6.5515156415        3.3361865514
 C          0.4939550401       -6.6799139790        2.2550697417
 C         -1.4472546035        5.6044442643        6.4718074717
 C         -2.5910530303        5.5245689287        5.4658155594
 C         -4.2116943637        6.1190438546       -2.1760241563
 C         -4.9855900323        5.4376853666       -3.3000518941
 C          5.7172414158       -2.1906226749       -3.3204983199
 C          4.9312502332       -2.7393457611       -4.5068135805
 C          2.3145601826       -5.2344851421        3.1844681789
 C         -0.4715873195       -5.5027250484        2.3195716145
 C         -0.5228300478        4.4010840138        6.3249411408
 C         -2.0458738968        5.4413245414        4.0444941306
 C         -4.1087006978        5.1977296543       -0.9657126091
 C         -4.3168014356        4.1234702912       -3.6869414435
 C          5.1090512851       -0.8776353334       -2.8428259225
 C          3.4682410331       -2.9367351610       -4.1273089777
 C          1.9283165246        0.6578260353        3.9041833219
 C         -1.6448807156       -0.0114049410        0.7231217547
 C          1.1120597778        1.7842830640        0.4792173516
 C         -1.6562508869       -0.1499596267       -2.9704835186
 C          3.5466587060       -0.4509470743        2.5066158673
 C         -2.4922084279       -0.9794125554        2.7577896218
 C          3.5688979956        1.9564034559        2.7108937539
 C         -3.3738525438        1.1245307440        1.9562880504
 C          0.6716515280        4.0997851647       -0.0160788226
 C         -3.2973056618       -1.4532051611       -1.7828719362
 C          1.9744999461        2.7564947981       -1.5470567196
 C         -1.1376724773       -2.4046648034       -2.3010899224
 C          1.8095547848       -1.7915428233        3.6595485660
 C         -0.7226490048       -2.1654646177        1.4909663936
 C          1.8232602151        3.1289589199        3.9946122856
 C         -2.5105332085        2.1195928049       -0.1450247782
 C         -0.2082721569        3.1048511165        2.0782136851
 C         -3.7948084383        0.9030227796       -2.3065224162
 C          2.4454932036        0.3761078672       -1.0444635967
 C          0.5913139537       -1.0442060621       -3.4427155549
 C          2.4480171263       -0.5146380000        3.3679003597
 C         -1.6330335920       -1.0410634957        1.6591577727
 C          2.4695834840        1.8974447872        3.5665053945
 C         -2.5085113589        1.0719477260        0.8641991982
 C          0.5259728116        2.9987981360        0.8270174055
 C         -2.9200232363       -0.2568791668       -2.3915088120
 C          1.8397850218        1.6551118182       -0.6997893665
 C         -0.7569661454       -1.2084796328       -2.9151740355
 C          4.0921361089        0.7800523840        2.2040605594
 C         -3.3431805928        0.1015264025        2.8860282673
 C          1.3867903212        3.9550131667       -1.1905935072
 C         -2.4018178883       -2.5077359835       -1.7573149087
 C          1.3580714277       -4.0447482654        3.2545677012
 C          0.2704655016       -4.1745311537        2.1572742403
 C          0.0458802796        4.3164732719        4.9109110200
 C         -1.1293716748        4.2330920973        3.8815136579
 C         -3.4296713419        3.8832434987       -1.3364124065
 C         -4.2227970490        3.1823860908       -2.4887172310
 C          3.6428887469       -1.0630010112       -2.4464858634
 C          2.8419416794       -1.6278658108       -3.6478969619
 Br         5.5905349513        0.8706117352        1.0221140089
 Br        -4.5072067544        0.1929825941        4.3986691953
 Br         1.5572704423        5.4570801684       -2.3594449733
 Br        -2.9211756417       -4.1396118150       -0.9103549597
 N          2.0805123618       -2.8349474877        3.0020801911
 N         -0.6534447049       -3.1002449006        2.3346645853
 N          0.7992405271        3.1207775688        4.7386021782
 N         -3.4245646605        2.9906290557       -0.2219702170
 N         -0.5504802546        4.2160901368        2.5763713946
 N         -3.4768411021        2.0157777314       -2.8191703099
 N          3.0853973739        0.2099591742       -2.1183563104
 N          1.5072078276       -1.8772847095       -3.1946299851
 H          1.0902950345       -6.5893845715        4.3205264546
 H          2.2665334190       -7.3822568114        3.2678651772
 H         -0.0619863374       -7.6096761289        2.3851839539
 H          0.9698051688       -6.7065153016        1.2723561644
 H         -0.8781996465        6.5219068897        6.3047894156
 H         -1.8445873371        5.6343281542        7.4876061495
 H         -3.1976108442        4.6402634071        5.6738725765
 H         -3.2321570951        6.4026167996        5.5585645302
 H         -3.2082101074        6.3714576777       -2.5260738159
 H         -4.7107542274        7.0452114499       -1.8866644277
 H         -5.0310996759        6.0916894939       -4.1723112220
 H         -6.0088257426        5.2415372798       -2.9714594385
 H          6.7575774495       -2.0240692100       -3.6038860521
 H          5.7023309385       -2.9166247213       -2.5047058809
 H          5.3546806478       -3.6921584859       -4.8289428788
 H          4.9989064019       -2.0398651001       -5.3429255433
 H          3.0617419998       -5.1283198841        3.9736336785
 H          2.8323507349       -5.2038210938        2.2242899893
 H         -1.2234990823       -5.5802810632        1.5319598567
 H         -0.9900348689       -5.4905998475        3.2795089966
 H         -1.0662786193        3.4783185022        6.5344434869
 H          0.3082784903        4.4708224699        7.0297574714
 H         -1.4789721691        6.3413379405        3.8009502584
 H         -2.8643548479        5.3532655516        3.3278128736
 H         -5.1014616191        4.9753725402       -0.5711453774
 H         -3.5289762209        5.6743913799       -0.1732278897
 H         -3.3084576590        4.3075476524       -4.0612307110
 H         -4.8839011314        3.6250817014       -4.4758544229
 H          5.1578514419       -0.1280411444       -3.6341172177
 H          5.6569262429       -0.4926511069       -1.9807292606
 H          3.3818774125       -3.6730589733       -3.3266013083
 H          2.8975119514       -3.3005134670       -4.9837468647
 H          1.0767310713        0.6347211826        4.5663737339
 H         -0.9837558947       -0.0547118692       -0.1307840259
 H          1.0067238659        0.9360692513        1.1406972585
 H         -1.3836573905        0.7854586201       -3.4340651246
 H          3.9427343621       -1.3655954659        2.0954112938
 H         -2.4745050163       -1.7803132372        3.4792160679
 H          3.9984191103        2.9089692858        2.4393682659
 H         -4.0428279273        1.9643500668        2.0538581839
 H          0.2186146289        5.0370765589        0.2642856105
 H         -4.2717822597       -1.5504345888       -1.3284060762
 H          2.5385921767        2.6466098429       -2.4591612618
 H         -0.4335012870       -3.2202578138       -2.2631479092
 H          1.0576341137       -1.7774594975        4.4606150062
 H         -0.1034807089       -2.1426020801        0.5799625465
 H          2.2449549385        4.0597243294        3.5875610650
 H         -1.6642101994        2.0941065614       -0.8471911699
 H         -0.4356701662        2.1473524729        2.5695297027
 H         -4.7188424301        0.7672198784       -1.7255508851
 H          2.3079172600       -0.4293017857       -0.3054963845
 H          0.7641724599       -0.1364227732       -4.0371045891
 H          0.8411855105       -4.0156390581        4.2287157477
 H          0.7707160740       -4.1281968484        1.1737513732
 H          0.6338967893        5.2186667728        4.6680435393
 H         -1.6711075460        3.2975390823        4.0972630439
 H         -2.4111128795        4.0617333978       -1.7185818695
 H         -5.2265345768        2.9397242075       -2.0984378293
 H          3.5549384563       -1.7790086468       -1.6103056443
 H          2.8669461504       -0.8671135659       -4.4463601740
 C          2.0821757737       -6.9452790455       -7.2563331604
 C          0.7952369125       -6.3989450618       -6.6343533614
 O          2.2021566294       -8.3364151902       -7.0121226562
 C          1.0724917283       -9.0314312474       -7.5129202724
 C         -0.2139125022       -8.4855550021       -6.8900201699
 O         -0.3343183889       -7.0939501736       -7.1350536259
 H          2.9608489026       -6.4811770203       -6.8083557367
 H          0.8391895016       -6.5076786265       -5.5410331775
 H          1.0276752795       -8.9206056028       -8.6060402690
 H         -0.2043943503       -8.6677983172       -5.8057208282
 H          0.6478367748       -5.3514488129       -6.8979659285
 H          1.2183260817      -10.0794936607       -7.2512585104
 H         -1.0921891770       -8.9509217005       -7.3374716462
 H          2.0726542791       -6.7618555384       -8.3405764244