142
-211.12801561
 C          4.9482251619       -6.1298576674        3.2333408045
 C          4.3610104783       -6.6036755686        1.9077734449
 C         -4.1663333131        2.7681068787        5.4449138995
 C         -4.8635000515        2.2897410023        4.1753578810
 C         -4.6350725867        3.1222463576       -3.5755673328
 C         -4.7340213928        2.3263194978       -4.8728723599
 C          7.8967619720        0.3625618664       -2.0645588842
 C          7.7737306793       -0.3550392586       -3.4048357547
 C          4.9823090161       -4.6067342424        3.2840719027
 C          2.9625915036       -6.0309420373        1.7112803528
 C         -2.7745251584        2.1551729239        5.5523191494
 C         -4.0314877013        2.6392961145        2.9466087952
 C         -4.4211203927        2.1843221384       -2.3929485259
 C         -3.4755613221        1.4915401300       -5.0818606481
 C          6.6461505516        1.1878524302       -1.7869248764
 C          6.5344057712       -1.2424426901       -3.4193114878
 C          1.6547322514        0.2890185095        3.8686152522
 C         -0.2932384530       -1.5539047143       -0.1488135888
 C          1.2199508232        1.3155608544        0.3542065161
 C          0.5938791790       -1.2261995549       -3.7144081864
 C          3.8808654876        0.2389048580        2.9498628854
 C         -1.0289475938       -3.0614047731        1.5774309426
 C          2.7004042176        2.3370753903        3.1515175871
 C         -2.5903649155       -1.5117251406        0.5731072351
 C         -0.1474291422        3.1991244657       -0.2636941443
 C         -0.4876374065       -3.2534040038       -2.9919443058
 C          1.9499780195        2.7960607116       -1.3977638491
 C          1.9203511356       -3.0697955818       -2.9128247607
 C          2.7852671025       -1.8857773251        3.6023127179
 C          1.3365375956       -3.1183397093        0.8371261470
 C          0.3630712650        2.4006428989        3.9255041095
 C         -1.8329122339        0.0408131052       -1.2082189510
 C         -0.9004321993        1.6755976035        1.5436347873
 C         -1.8771687792       -1.3230364433       -3.6376888828
 C          3.3718632326        0.8673149718       -0.7612176549
 C          3.0382744768       -0.9557319802       -3.5668243740
 C          2.7807086001       -0.4329060372        3.4895703110
 C         -0.0122771123       -2.5752986642        0.7533814066
 C          1.5986281516        1.6700877553        3.6857552305
 C         -1.5743902491       -1.0160568930       -0.2431747480
 C          0.0620147590        2.0697195992        0.5266640607
 C         -0.5739405333       -1.9531646282       -3.4877544662
 C          2.1689788264        1.6722741253       -0.5989278416
 C          1.8383034899       -1.7682001444       -3.4147551538
 C          3.8241858034        1.6097245490        2.8016479238
 C         -2.2959331923       -2.5202618290        1.4721815794
 C          0.7968386808        3.5352869064       -1.2162675493
 C          0.7588319533       -3.7902821266       -2.7222573505
 C          3.5840757267       -4.0195313633        3.0951240914
 C          2.9858242884       -4.5015471503        1.7484208807
 C         -1.9229012862        2.5133660873        4.3371997706
 C         -2.6394940267        2.0221508039        3.0360299607
 C         -3.1538502573        1.3568600548       -2.5816493660
 C         -3.2467965341        0.5378819948       -3.9119630150
 C          5.3956316058        0.3062190988       -1.7879284324
 C          5.2716543913       -0.4253347015       -3.1491748651
 Br         5.3242871963        2.5297892877        2.0573855553
 Br        -3.6833349669       -3.1760630870        2.6108572640
 Br         0.4886903148        5.0625072199       -2.3224904737
 Br         0.8678003477       -5.5673851665       -2.0284713476
 N          3.6694431529       -2.5916099272        3.0415287594
 N          1.6462664840       -4.0129122427        1.6703210823
 N         -0.6741067978        1.8303257550        4.3741280567
 N         -3.0002358158        0.4198546615       -1.5151505897
 N         -1.8375481770        2.4331437974        1.9282377677
 N         -1.9960276696       -0.1293893596       -4.0419122546
 N          4.2416981490        1.1335229536       -1.6346704607
 N          4.1433727967       -1.3022925072       -3.0638731067
 H          4.3386975106       -6.5075405791        4.0572810922
 H          5.9599498016       -6.5201123122        3.3560646475
 H          4.3105470380       -7.6934027047        1.8877050277
 H          5.0048676710       -6.2810083835        1.0866396144
 H         -4.0831029420        3.8572068479        5.4267059815
 H         -4.7535547649        2.4895522721        6.3213761357
 H         -5.0031924909        1.2073961619        4.2228876626
 H         -5.8475173532        2.7537261284        4.0917135453
 H         -3.7972620324        3.8201619883       -3.6402365403
 H         -5.5456455757        3.7027300383       -3.4222534854
 H         -4.8634185238        3.0036636666       -5.7183850459
 H         -5.6047496109        1.6679144005       -4.8313345280
 H          8.7683259105        1.0189206285       -2.0686507596
 H          8.0319542626       -0.3720673335       -1.2677157364
 H          8.6599258176       -0.9655460566       -3.5861092147
 H          7.7021503512        0.3824536041       -4.2073526233
 H          5.3774732121       -4.2652376953        4.2430202805
 H          5.6285696676       -4.2170740230        2.4956933301
 H          2.5488242575       -6.3501450851        0.7528174263
 H          2.2951948150       -6.3829426717        2.4993937525
 H         -2.8434372643        1.0680995299        5.6175514586
 H         -2.2676664522        2.5156938701        6.4498135878
 H         -3.9255784020        3.7213638956        2.8542747226
 H         -4.5161594451        2.2686698058        2.0416249466
 H         -5.2675569143        1.5039655407       -2.2872379486
 H         -4.3268633493        2.7538052296       -1.4667698221
 H         -2.6026643496        2.1399414014       -5.1732620560
 H         -3.5562239414        0.9032332527       -5.9981979219
 H          6.5234516331        1.9578196162       -2.5501632854
 H          6.7220667038        1.6842229098       -0.8176182838
 H          6.6146535578       -2.0156623990       -2.6533501662
 H          6.4296533206       -1.7367504796       -4.3873251437
 H          0.7907070042       -0.2080775180        4.2816779914
 H          0.4890145128       -1.1759906853       -0.7917692767
 H          1.3846000683        0.4473309437        0.9764166607
 H          0.5044980668       -0.2211160740       -4.0965482099
 H          4.7494768616       -0.3296607084        2.6586764626
 H         -0.8020801716       -3.8517401673        2.2746738262
 H          2.6713861289        3.4060202417        3.0028249080
 H         -3.5803980351       -1.0932015794        0.4893939873
 H         -1.0435102514        3.7807004664       -0.1187800111
 H         -1.3830270963       -3.8284963941       -2.8099449687
 H          2.6887367908        3.0632965865       -2.1360359206
 H          2.8897734376       -3.4818559959       -2.6826821256
 H          1.9559465909       -2.3234242307        4.1750080599
 H          2.0630254856       -2.6949074704        0.1253169355
 H          0.3707680106        3.4630295440        3.6405268423
 H         -0.9354294047        0.4852160056       -1.6631890706
 H         -0.7493866968        0.6705288092        1.9643919964
 H         -2.7421989070       -1.9255544079       -3.3240171888
 H          3.4683452999        0.0147739928       -0.0700394150
 H          2.9090094162       -0.0110176658       -4.1128394608
 H          2.9061454855       -4.3581560502        3.8968244972
 H          3.6163044686       -4.1040283584        0.9333781515
 H         -1.7979018874        3.6069147954        4.2524685830
 H         -2.7010583361        0.9237207434        3.1067136040
 H         -2.2707724124        2.0100157591       -2.6762342374
 H         -4.0888522894       -0.1681239412       -3.8071572246
 H          5.4609430969       -0.4587665246       -0.9939961331
 H          5.1314645818        0.3455148113       -3.9258368762
 C         -9.4314166290        3.2827372315       -2.1786704973
 C         -9.0522965143        3.3633200995       -0.6985083946
 O        -10.8310314737        3.1109729921       -2.3262577095
 C        -11.5331878881        4.1653998681       -1.6897120588
 C        -11.1542754268        4.2470266909       -0.2095540516
 O         -9.7547478244        4.4176388683       -0.0618014320
 H         -8.9675425498        2.4186670614       -2.6543081427
 H         -9.2930658514        2.4106453230       -0.2049601646
 H        -11.2928290063        5.1177796420       -2.1842046348
 H        -11.4682107381        3.3253748551        0.3016141186
 H         -7.9925067714        3.5872463568       -0.5773846594
 H        -12.5933832749        3.9419927398       -1.8091732495
 H        -11.6189812717        5.1116389061        0.2645117665
 H         -9.1198166815        4.2054881288       -2.6891766412