142
-211.12685622
 C          4.0736093994       -3.3589729420       -5.3005910471
 C          3.4469040467       -4.7327240239       -5.0844373966
 C         -1.2938177532        6.5864414918        3.4993237732
 C         -0.2021608451        7.5518403332        3.0488843222
 C         -6.9418957354       -0.0508917190        0.8587247370
 C         -6.3669460137        1.3414875290        0.6191240609
 C          7.9472478268       -2.4582619542        2.8031015639
 C          6.9008326552       -3.5125827987        3.1492743942
 C          3.0734342911       -2.2588519217       -4.9663347145
 C          2.9557860786       -4.8724191278       -3.6480676846
 C         -1.6483072034        5.6206388363        2.3742413615
 C          1.0347356937        6.7842179820        2.5961399958
 C         -5.8988572704       -1.1188082875        0.5490933212
 C         -5.1182674645        1.5543347655        1.4674741957
 C          7.4231718218       -1.5295561145        1.7139166580
 C          5.6035395026       -2.8477782123        3.5935080930
 C          0.7355184128        1.1557016338       -0.8564074766
 C         -1.2549080957       -3.1323589763        0.1783280237
 C          3.6614483657        2.9313878642        0.5667618701
 C          0.5193401269       -0.4403882473        2.0160374880
 C         -0.4717326468        0.5178240019       -2.8389250228
 C          0.8567122554       -4.0959799413        0.8208811267
 C         -1.3136525679        2.2872884911       -1.4221565333
 C         -0.7512570722       -3.4629300366        2.5101833416
 C          3.1446932128        3.2752346200       -1.7606782297
 C         -0.6115565930        0.8766231848        3.6856193301
 C          4.6164730822        1.4770493286       -1.0988674914
 C          1.6685904879        0.1571250985        4.0451046234
 C          1.6481033777       -0.6393087315       -2.2789547801
 C          0.3843828812       -3.6734490022       -1.5771397272
 C         -0.0707341207        2.9496529383        0.6192765636
 C         -2.8402475817       -2.3101292010        1.8889498349
 C          2.0221568100        4.6729905115       -0.0705324150
 C         -1.8000722030        0.2594201508        1.5984129130
 C          5.0881654999        1.0589001501        1.2980404522
 C          2.8411662032       -1.2057631760        2.3394167612
 C          0.6259028773        0.3575950054       -1.9912137636
 C         -0.0162049682       -3.6533944520       -0.1765494256
 C         -0.2263743812        2.1198435901       -0.5655338690
 C         -1.6219521189       -3.0143628425        1.5179835828
 C          2.9848498389        3.6407140623       -0.4246993380
 C         -0.6174200549        0.2404503350        2.4448127889
 C          4.4624823051        1.8429492893        0.2410709814
 C          1.6622720243       -0.4903407157        2.8082701529
 C         -1.4205043928        1.4756204826       -2.5364712348
 C          0.4682208099       -4.0034821555        2.1419654755
 C          3.9649726765        2.2056346787       -2.0731024012
 C          0.5338906655        0.8283405068        4.4585583017
 C          2.5854556496       -2.3830257430       -3.5214973665
 C          1.9453988698       -3.7784288310       -3.3058636659
 C         -0.4210374737        4.8363120303        1.9211804764
 C          0.6989147375        5.8249502085        1.4570985884
 C         -4.6482967186       -0.9283895380        1.4036106119
 C         -4.0613439383        0.5004971955        1.1534717870
 C          6.1262083538       -0.8494502922        2.1507415959
 C          5.0613995986       -1.9194398617        2.5047743471
 Br        -2.9336546017        1.6796304128       -3.6847513057
 Br         1.6627164327       -4.6012677809        3.5085327554
 Br         4.1691571654        1.7040241323       -3.9054014994
 Br         0.5490257325        1.7273505055        6.1446802854
 N          1.5775716807       -1.3997227980       -3.2826593674
 N          1.5813472080       -3.8753836885       -1.9247176412
 N         -0.7432507673        4.0044719343        0.8059653669
 N         -3.6267114926       -1.8402106482        1.0154018799
 N          1.8228819028        5.0138190273        1.1319833647
 N         -2.9293126364        0.6544434987        2.0098498435
 N          5.6083161782       -0.0685716796        1.0686737426
 N          3.9116921485       -1.2362231618        3.0053897992
 H          4.9546210814       -3.2546436227       -4.6635742099
 H          4.3939598189       -3.2518420616       -6.3380591475
 H          4.1774164754       -5.5152682152       -5.2963832089
 H          2.6063160046       -4.8613560068       -5.7699624156
 H         -0.9445444364        6.0208800117        4.3661251750
 H         -2.1848333126        7.1420091037        3.7959895598
 H         -0.5734419666        8.1622870467        2.2224778297
 H          0.0663654660        8.2207935511        3.8680475604
 H         -7.2554378656       -0.1411550466        1.9013101292
 H         -7.8185414706       -0.2068792021        0.2280973371
 H         -7.1099384396        2.1007498673        0.8681098251
 H         -6.1111372696        1.4528787476       -0.4369945245
 H          8.8650974638       -2.9389461439        2.4604272933
 H          8.1848717007       -1.8745195399        3.6952060959
 H          7.2679362041       -4.1575041524        3.9491180086
 H          6.7081951693       -4.1372996890        2.2743391164
 H          3.5283223459       -1.2752675476       -5.0977800795
 H          2.2076253073       -2.3203156312       -5.6274202332
 H          2.4813453574       -5.8446296591       -3.4995338538
 H          3.7938462825       -4.7970636086       -2.9531100109
 H         -2.0471223145        6.1652125711        1.5168611739
 H         -2.4080119766        4.9112652194        2.7073240768
 H          1.4455604269        6.2053688592        3.4249316703
 H          1.8069516739        7.4751477327        2.2515833813
 H         -5.6089914068       -1.0710063557       -0.5018296838
 H         -6.3034345822       -2.1143579076        0.7427927003
 H         -5.3640849324        1.4932187184        2.5288608435
 H         -4.6914103378        2.5404152331        1.2762787340
 H          7.2257574752       -2.0928474701        0.8002888167
 H          8.1605739728       -0.7584426506        1.4816115069
 H          5.7705594001       -2.2571233807        4.4955639607
 H          4.8451594627       -3.5998434517        3.8194531060
 H          1.5819139092        1.0351696175       -0.1952079111
 H         -1.9431832464       -2.7779026086       -0.5731852333
 H          3.5225616042        3.2296195118        1.5943834612
 H          0.5074905855       -0.9419939337        1.0586988268
 H         -0.5514382540       -0.1082166958       -3.7129669455
 H          1.8161479719       -4.4975498277        0.5366355036
 H         -2.0499225127        3.0404700254       -1.1923885421
 H         -1.0206889667       -3.3776151765        3.5521533730
 H          2.6263145814        3.8140953516       -2.5394523982
 H         -1.4980604276        1.3969938070        4.0107719738
 H          5.2399503475        0.6314976364       -1.3415436331
 H          2.5591044820        0.1144888745        4.6512270577
 H          2.4852041375       -0.6795043341       -1.5637474964
 H         -0.4129071632       -3.4640779432       -2.3036614216
 H          0.6829389404        2.5990798123        1.3397462746
 H         -3.0024882307       -2.1614193510        2.9665264741
 H          1.4432199509        5.0969501704       -0.9041789226
 H         -1.6450026115       -0.1031063165        0.5715896649
 H          5.0475762254        1.4963829245        2.3051670642
 H          2.7326450035       -1.7150631354        1.3686319395
 H          3.4308740107       -2.2830582186       -2.8179615071
 H          1.0630951653       -3.8416081588       -3.9651349876
 H          0.0009581426        4.2517761282        2.7551337813
 H          0.3126461537        6.3737747608        0.5805749734
 H         -4.8890316001       -1.0030101029        2.4783394699
 H         -3.7722036587        0.5397831212        0.0903900998
 H          6.2909493296       -0.2372601585        3.0536178326
 H          4.8332786007       -2.4902892177        1.5873004023
 C        -12.9186770393       -1.6035249972       -7.3018890407
 C        -12.6632159627       -2.9981657813       -6.7266699909
 O        -12.4703755090       -0.6038684231       -6.4021314326
 C        -11.0938936785       -0.7769667677       -6.1089219699
 C        -10.8381544434       -2.1713974637       -5.5335279760
 O        -11.2872449168       -3.1719064977       -6.4324327469
 H        -13.9853996511       -1.4298919695       -7.4442297068
 H        -13.2547553742       -3.1314011817       -5.8092399844
 H        -10.5030459715       -0.6437896945       -7.0266441951
 H        -11.3658926445       -2.2760804956       -4.5744505795
 H        -12.9204320645       -3.7716706440       -7.4504337161
 H        -10.8361539330       -0.0033027021       -5.3856105975
 H         -9.7713682997       -2.3448754160       -5.3920333003
 H        -12.3904650523       -1.4987376320       -8.2606541001