142
-211.12689627
 C          0.7829563488       -6.4725497769        3.0656485106
 C         -0.1960728412       -6.4582737309        1.8961136243
 C         -1.2468927187        5.8307046377        6.4119474238
 C         -2.3072309946        5.8921990913        5.3171503264
 C         -3.1065085429        6.8913706450       -2.4434102199
 C         -3.8376835137        6.3397239559       -3.6631445224
 C          5.9224851361       -2.3548829669       -3.0304584609
 C          5.1927596587       -2.8128503520       -4.2890986456
 C          1.6742473228       -5.2364795860        3.0264434329
 C         -1.0398609730       -5.1896758982        1.9253636198
 C         -0.4356262539        4.5450780219        6.2968395410
 C         -1.6578225079        5.7939688320        3.9413501730
 C         -3.2287674724        5.9275670723       -1.2684873172
 C         -3.2882621296        4.9682332904       -4.0390877893
 C          5.3957511992       -0.9997316406       -2.5741601974
 C          3.6909645321       -2.8807650034       -4.0365455054
 C          1.8218823391        0.6389096508        3.9443855493
 C         -1.5055815336        0.4323165153        0.4293165062
 C          1.4113247643        1.9436659411        0.5045883137
 C         -1.2117390868        0.3989666061       -3.2609582980
 C          3.4344361183       -0.5890527232        2.6430228186
 C         -2.6304531218       -0.4967058682        2.3440915879
 C          3.6799976583        1.7961435085        2.9392089519
 C         -3.2194059511        1.7070726633        1.5419515796
 C          1.2218998828        4.3017214803        0.0529780059
 C         -3.0822066166       -0.7407508604       -2.2594010535
 C          2.5060452740        2.8813494252       -1.4234509221
 C         -0.9998788132       -1.9128460814       -2.6197149284
 C          1.4796825398       -1.7772839735        3.5968141690
 C         -0.8785502798       -1.8243700717        1.1984468450
 C          1.9571617960        3.1044319342        4.1178357437
 C         -2.0642338656        2.6648589246       -0.4331874236
 C          0.0971878796        3.3405980007        2.0431723989
 C         -3.2713694833        1.6685855300       -2.7462029462
 C          2.7225592623        0.4558445883       -0.9605378204
 C          0.9593175771       -0.7231923988       -3.5662788937
 C          2.2653998319       -0.5645634948        3.4083458643
 C         -1.6832498622       -0.6171664497        1.3255547999
 C          2.5113135144        1.8256438014        3.6990321843
 C         -2.2651232283        1.5951104638        0.5315329030
 C          0.9137959244        3.1982208891        0.8477697898
 C         -2.5254645006        0.4199062053       -2.7950081610
 C          2.2103125544        1.7767625082       -0.6225819621
 C         -0.4400532118       -0.7528938687       -3.1617523570
 C          4.1242594095        0.5875313372        2.4328925031
 C         -3.3784669690        0.6615516468        2.4328173476
 C          2.0048932463        4.1201026723       -1.0720235798
 C         -2.3113062012       -1.8877834934       -2.1905368885
 C          0.8391536919       -3.9571355320        3.0638896420
 C         -0.1558963903       -3.9418038473        1.8751035662
 C          0.2356779473        4.4413008937        4.9297611940
 C         -0.8535536194        4.5047689672        3.8085459175
 C         -2.6681749510        4.5556969216       -1.6287941563
 C         -3.4203633134        3.9868932224       -2.8772491489
 C          3.8902509720       -1.0576312003       -2.3067432073
 C          3.1493764133       -1.5248494393       -3.5858921557
 Br         5.7195931755        0.5577354311        1.3817522526
 Br        -4.6626543138        0.8323405160        3.8375231066
 Br         2.3957587649        5.6283643265       -2.1782220129
 Br        -3.0768271644       -3.4709632465       -1.4433465461
 N          1.6977586478       -2.8208310252        2.9202258640
 N         -0.9786898371       -2.7827256435        2.0120672544
 N          0.8783709745        3.1803447069        4.7754760582
 N         -2.8665174993        3.6352216017       -0.5553613772
 N         -0.1747980298        4.4658284796        2.5528543146
 N         -2.7835353410        2.7513497831       -3.1842123980
 N          3.4234511020        0.2541979566       -1.9894176372
 N          1.7614048149       -1.6480796389       -3.2570480470
 H          0.2268965627       -6.4898312997        4.0056286543
 H          1.4032722695       -7.3694506010        3.0244706991
 H         -0.8518634650       -7.3289040210        1.9447996323
 H          0.3572076420       -6.5052239044        0.9556009747
 H         -0.5792369004        6.6906556673        6.3214462161
 H         -1.7207048150        5.8736062554        7.3939161132
 H         -3.0112266496        5.0668937236        5.4455534341
 H         -2.8660938136        6.8265202256        5.3899431505
 H         -2.0512227584        7.0356824098       -2.6859188829
 H         -3.5238598520        7.8601003869       -2.1642626857
 H         -3.7214347865        7.0205524418       -4.5078677323
 H         -4.9041329014        6.2554326698       -3.4416925940
 H          6.9935490266       -2.2786340396       -3.2240217666
 H          5.7752287380       -3.0887088687       -2.2350434636
 H          5.5545796692       -3.7957462672       -4.5955112425
 H          5.3933522161       -2.1111435105       -5.1017643816
 H          2.3586826893       -5.2317582421        3.8772333785
 H          2.2720054168       -5.2308477672        2.1133814740
 H         -1.7254208804       -5.1656340236        1.0761665734
 H         -1.6349281583       -5.1516396006        2.8390867877
 H         -1.0821013880        3.6762710691        6.4307943574
 H          0.3378761377        4.5122523543        7.0669106099
 H         -0.9874894562        6.6389473088        3.7758183362
 H         -2.4190672573        5.8083709128        3.1592912432
 H         -4.2744346596        5.8097419412       -0.9796709818
 H         -2.6808363163        6.3088328406       -0.4049620984
 H         -2.2335316278        5.0439352271       -4.3085090099
 H         -3.8278491341        4.5640548386       -4.8980663630
 H          5.5790807880       -0.2447548027       -3.3402306829
 H          5.9001989782       -0.6808992897       -1.6600783563
 H          3.4713967414       -3.6149786496       -3.2595656477
 H          3.1641622370       -3.1827803133       -4.9440844669
 H          0.9188998179        0.6842794257        4.5332857218
 H         -0.7758645010        0.3437502205       -0.3630550702
 H          1.1798310246        1.0924413902        1.1290781180
 H         -0.8000563036        1.3083075063       -3.6705924751
 H          3.7703311968       -1.5272707444        2.2313661853
 H         -2.7594642309       -1.3138239978        3.0353955391
 H          4.2240056727        2.7070891681        2.7396702960
 H         -3.8070523942        2.6084464830        1.6093866671
 H          0.8372089662        5.2698743811        0.3303599963
 H         -4.0978787685       -0.7400903340       -1.8932904180
 H          3.1229283427        2.7424475362       -2.2966001712
 H         -0.3940592493       -2.8017615523       -2.5464538682
 H          0.6684908137       -1.7110738349        4.3349505968
 H         -0.1815857427       -1.8422086947        0.3454106064
 H          2.5025668081        3.9981098534        3.7805280223
 H         -1.1661234916        2.5649665891       -1.0604186807
 H         -0.2598775108        2.3966757521        2.4807486675
 H         -4.2553344919        1.6232816329       -2.2568402773
 H          2.4592508207       -0.3493836673       -0.2562046557
 H          1.2756319212        0.1699466363       -4.1226549029
 H          0.2451873962       -3.9051145661        3.9920954398
 H          0.4308167075       -3.9206241729        0.9396432822
 H          0.9279201015        5.2854614971        4.7656686863
 H         -1.5000637455        3.6228224177        3.9479387115
 H         -1.6043435069        4.6280259137       -1.9086892052
 H         -4.4784174043        3.8522436668       -2.5926603634
 H          3.6677510086       -1.7789336018       -1.5005558860
 H          3.3179296937       -0.7593419929       -4.3621705330
 C         -0.6912054294      -11.3168426491       -4.2837786858
 C         -1.2436766963      -10.1863396053       -5.1542929741
 O         -1.6030606126      -12.4013890681       -4.2365728465
 C         -1.8884364489      -12.8719319919       -5.5431257184
 C         -2.4411332266      -11.7412735469       -6.4133067676
 O         -1.5283493970      -10.6575123829       -6.4611139522
 H         -0.5577485340      -10.9857495209       -3.2538443007
 H         -2.1614768099       -9.7865273847       -4.6994890225
 H         -0.9706178093      -13.2713268911       -5.9985227690
 H         -3.4004857467      -11.3957776885       -6.0016360226
 H         -0.5092981338       -9.3892915263       -5.2709750422
 H         -2.6228729695      -13.6689758044       -5.4266660469
 H         -2.5761052586      -12.0721957206       -7.4431541501
 H          0.2686904970      -11.6618662125       -4.6947694711