142
-211.12932250
 C          2.6368698117       -7.1000254692        1.9360998123
 C          2.4293742425       -7.1795287657        0.4271141837
 C         -5.7054609188        2.5648409953        3.7428933631
 C         -6.0336345146        2.4847476833        2.2551875790
 C         -3.4177282781        4.8195301007       -4.8040876027
 C         -3.1745507988        4.3170450915       -6.2236349120
 C          7.7501718767       -0.2397438628       -0.5579633493
 C          7.9704650463       -0.6396484676       -2.0132834330
 C          2.8232272883       -5.6506680458        2.3698821347
 C          1.2289898054       -6.3382203245        0.0105886913
 C         -4.4766330806        1.7229309350        4.0669339097
 C         -4.8414583816        2.9399337534        1.4209941971
 C         -3.6567260276        3.6482295723       -3.8578756130
 C         -1.9905348291        3.3571419882       -6.2540917103
 C          6.5647113616        0.7106928668       -0.4415662740
 C          6.7114138317       -1.2831927026       -2.5827140700
 C          0.0282005885       -0.4748870596        3.2419577337
 C         -0.7993899027       -1.0764519368       -1.4982464882
 C          0.7857240401        1.3085576624        0.0991736023
 C          1.1788370027       -0.2069875184       -4.4845817078
 C          2.4092224479       -0.7197605281        2.9734883033
 C         -2.1810331170       -2.7466171972       -0.4513392216
 C          1.4518276274        1.4638557348        3.3655204712
 C         -3.1890460398       -0.7829864662       -1.4388851420
 C         -0.1302050117        3.4829860276       -0.3826495812
 C         -0.2668956404       -2.1295860203       -4.6073047314
 C          2.1607954317        2.9730872631       -0.9650998927
 C          2.0057645989       -2.3703919838       -3.8232828334
 C          0.9466848058       -2.7094129907        2.7565871181
 C          0.2761294860       -3.0668916424       -0.5183347277
 C         -0.9918717905        1.7681785089        3.4684497435
 C         -1.7683633652        0.9351423084       -2.5261142638
 C         -1.5471128026        1.7704258237        0.7192722641
 C         -1.1923717179        0.0944348538       -5.1252698868
 C          3.1182829145        0.7422420720       -0.4617537794
 C          3.4744166469       -0.3852425240       -3.6066921134
 C          1.1326996233       -1.2871192096        3.0126507775
 C         -0.9165121977       -2.2900770102       -0.8275257345
 C          0.1760292675        0.9025142071        3.3991819540
 C         -1.9265135861       -0.3184376007       -1.8055270795
 C         -0.2870004607        2.1960585670        0.1305936932
 C         -0.0676637036       -0.7598347851       -4.7747851612
 C          2.0109035822        1.6880172331       -0.4406099859
 C          2.2108723074       -0.9986988138       -3.9942866859
 C          2.5451396355        0.6405547680        3.1618801889
 C         -3.2908198527       -1.9844527651       -0.7621336177
 C          1.0883885441        3.8435575673       -0.9275931330
 C          0.7768182252       -2.9105019054       -4.1433097872
 C          1.6216128865       -4.7978795374        1.9645248621
 C          1.4094765230       -4.8781061306        0.4309249646
 C         -3.2710287575        2.1759422023        3.2481088370
 C         -3.6106641444        2.0917799679        1.7234425800
 C         -2.4718063629        2.6879738737       -3.8692540818
 C         -2.2240625709        2.1691865625       -5.3244231903
 C          5.2918038338        0.0709076722       -0.9996763584
 C          5.5162741602       -0.3365823398       -2.4785499505
 Br         4.2887420515        1.4195387205        3.1036626501
 Br        -5.0194760990       -2.6028268214       -0.2332146433
 Br         1.2896022753        5.5965016736       -1.6606981801
 Br         0.4916063425       -4.7845049517       -3.9045716113
 N          1.8757221560       -3.4280124666        2.2931414462
 N          0.2189428408       -4.1534044694        0.1194112465
 N         -2.1673818658        1.3000304894        3.4480307403
 N         -2.7416464564        1.5487278301       -3.0518262091
 N         -2.4754041433        2.5798436484        1.0075331521
 N         -1.0638792608        1.3473652515       -5.2513310749
 N          4.2355521472        1.0316660204       -0.9701156080
 N          4.3334945838       -1.0092138900       -2.9233109597
 H          1.7684958783       -7.5232717397        2.4458474292
 H          3.5139548518       -7.6814895474        2.2251443819
 H          2.2662378591       -8.2150594196        0.1246242350
 H          3.3232600962       -6.8159358398       -0.0844026867
 H         -5.5145519158        3.6041920891        4.0193083378
 H         -6.5530043843        2.2098948641        4.3313599830
 H         -6.2868189861        1.4548814300        1.9932408261
 H         -6.8970436878        3.1122901731        2.0283534843
 H         -2.5485393925        5.3878105552       -4.4652973588
 H         -4.2829640057        5.4840644081       -4.7860503050
 H         -2.9758203431        5.1587485086       -6.8889632195
 H         -4.0677970829        3.8034017644       -6.5866101887
 H          8.6430164403        0.2475091658       -0.1631849990
 H          7.5604969728       -1.1326180967        0.0417820765
 H          8.8027151282       -1.3416387994       -2.0874007858
 H          8.2231115931        0.2463176310       -2.6000385228
 H          2.9454825996       -5.5886662694        3.4531986594
 H          3.7165414714       -5.2294453693        1.9056067383
 H          1.0923955690       -6.3752205866       -1.0718245698
 H          0.3193625054       -6.7192552633        0.4773306151
 H         -4.6687425050        0.6717235328        3.8452265392
 H         -4.2223514587        1.8096528562        5.1247765247
 H         -4.6040972453        3.9833563807        1.6344282759
 H         -5.0671324515        2.8553609577        0.3563609109
 H         -4.5516815990        3.0976193457       -4.1521305903
 H         -3.8011371422        4.0068549612       -2.8371659756
 H         -1.0799678961        3.8688992724       -5.9383307962
 H         -1.8319020172        2.9797746988       -7.2664252395
 H          6.7593613079        1.6287603806       -0.9980684399
 H          6.3909279161        0.9802877676        0.6018811961
 H          6.4746774776       -2.1978414509       -2.0364720426
 H          6.8578484668       -1.5460550829       -3.6323820955
 H         -0.9680869402       -0.8881708209        3.2699989874
 H          0.1767081832       -0.7190846708       -1.7943034297
 H          0.6642671474        0.3157577677        0.5087225010
 H          1.3111899069        0.8553350072       -4.6193897247
 H          3.2600542127       -1.3574166858        2.7946123949
 H         -2.2623815546       -3.6869509798        0.0696274442
 H          1.5822634170        2.5288967115        3.4849246931
 H         -4.0561909591       -0.1919711386       -1.6861185373
 H         -0.9643937488        4.1651212031       -0.3484686891
 H         -1.2269675327       -2.5720334941       -4.8266070826
 H          3.1124431498        3.2580067212       -1.3839142225
 H          2.8121451105       -2.9764814953       -3.4425562516
 H         -0.0587169058       -3.1034955809        2.9596846012
 H          1.2258433098       -2.6420367131       -0.8807316709
 H         -0.7906053051        2.8492956982        3.4805803197
 H         -0.7358108582        1.3086311760       -2.5921880132
 H         -1.6322739611        0.6900904941        0.9082608521
 H         -2.1667192655       -0.4074554065       -5.2179033734
 H          2.9127811923       -0.2381010686       -0.0028605713
 H          3.6126351714        0.6598636131       -3.9164484688
 H          0.6998421973       -5.1682519052        2.4443637300
 H          2.2969535917       -4.4406600445       -0.0597049513
 H         -3.0159492419        3.2257609489        3.4740015147
 H         -3.8027212732        1.0290396895        1.5021203338
 H         -1.5477270385        3.2014723093       -3.5566999594
 H         -3.1198732060        1.6004186440       -5.6288926371
 H          5.0345709557       -0.8397273515       -0.4301380537
 H          5.6992435560        0.5885172801       -3.0510167797
 C         -4.8544002316        1.9359449571        8.1935751550
 C         -4.5912169468        1.9879120374        9.6992798627
 O         -3.6322420328        1.8696238286        7.4745235828
 C         -2.8698354861        0.7481661889        7.8887873681
 C         -2.6070713386        0.8034583444        9.3946524286
 O         -3.8276464491        0.8666279167       10.1113295465
 H         -5.3583112119        2.8412115682        7.8549148064
 H         -4.0495093847        2.9121744799        9.9469550932
 H         -3.4135999796       -0.1749638060        7.6427293671
 H         -1.9963626595        1.6874413404        9.6290303659
 H         -5.5251964353        1.9430903565       10.2592521436
 H         -1.9361139614        0.7881838596        7.3275762804
 H         -2.0991771989       -0.0991292215        9.7343914954
 H         -5.4662789381        1.0541117585        7.9561315256