142
-211.12698292
 C          5.6350591927       -5.7696450849        3.4361063369
 C          4.9799296440       -6.3592989375        2.1912820830
 C         -3.7994025744        2.7154371451        5.7944932505
 C         -4.5545892080        2.1080472131        4.6165495266
 C         -4.9890124050        2.3916873315       -3.2474355644
 C         -5.1068295014        1.5003985575       -4.4797466027
 C          7.8103796870        0.4898438247       -2.4357469685
 C          7.6437477769       -0.3238599244       -3.7150411905
 C          5.5863207943       -4.2468027606        3.3901551008
 C          3.5407630601       -5.8737410419        2.0673426893
 C         -2.3652115606        2.1997134571        5.8321383143
 C         -3.8402783583        2.4219774482        3.3067455601
 C         -4.6189835946        1.5617940861       -2.0231749880
 C         -3.8033434721        0.7469083240       -4.7198999003
 C          6.5324957952        1.2598969754       -2.1254270802
 C          6.4622137010       -1.2784482676       -3.5865956870
 C          2.0334389852        0.4909908722        3.9322923258
 C         -0.0950337888       -1.7237806932        0.1666787736
 C          1.2786440239        1.2232225140        0.4050179325
 C          0.5249775819       -1.6177042058       -3.4646124550
 C          4.1845896324        0.5040698684        2.8488400666
 C         -0.6106312722       -3.1304964195        2.0507696053
 C          2.8964059244        2.5417591772        3.0094843601
 C         -2.3316153505       -1.7512502938        1.0592587816
 C         -0.2488003731        2.9738328020       -0.2287527096
 C         -0.3796137454       -3.6450616934       -2.5301514563
 C          1.7797536148        2.6138359526       -1.4948441991
 C          2.0123187199       -3.3213672290       -2.6356866964
 C          3.2684012401       -1.6305136766        3.7130369265
 C          1.6925978397       -3.1190997170        1.1340914145
 C          0.6210384992        2.5228024864        3.9548442576
 C         -1.8039949697       -0.3039910055       -0.8848616890
 C         -0.7657133767        1.5442856189        1.7313895273
 C         -1.9254011936       -1.8498418267       -3.2059878279
 C          3.3658701571        0.8228435760       -0.8433468740
 C          2.9530961398       -1.2004229645       -3.5078952977
 C          3.1699395563       -0.1906138626        3.5127646310
 C          0.3118463329       -2.6557422029        1.1166305334
 C          1.8796866947        1.8512116889        3.6677942229
 C         -1.4098332784       -1.2659839313        0.1324332791
 C          0.0909573025        1.9186731941        0.6170518814
 C         -0.5782931853       -2.3909951219       -3.1062829782
 C          2.1292087058        1.5653662731       -0.6419204613
 C          1.8174470767       -2.0660312962       -3.2178654243
 C          4.0338382798        1.8566402525        2.6204175142
 C         -1.9120943787       -2.6687402204        2.0048659788
 C          0.5983287555        3.2952860312       -1.2732378335
 C          0.9124526466       -4.0902992851       -2.3139923851
 C          4.1468478873       -3.7471763006        3.2729781959
 C          3.4806562271       -4.3459611776        2.0077136464
 C         -1.6320430845        2.5228054243        4.5327665412
 C         -2.4086936797        1.8963065648        3.3278471894
 C         -3.3077574177        0.8155595218       -2.2472239729
 C         -3.4300860177       -0.1028971868       -3.5080034027
 C          5.3419742623        0.3096408556       -1.9811729706
 C          5.1726452360       -0.5174129991       -3.2813747405
 Br         5.4165301949        2.8072780628        1.7066017897
 Br        -3.1701353834       -3.3076425291        3.2933950142
 Br         0.1123109700        4.7188252886       -2.4513643363
 Br         1.1759039784       -5.8037255038       -1.5105085104
 N          4.1462266842       -2.3232376423        3.1266780894
 N          2.1135464352       -3.9329677248        2.0006456724
 N         -0.3412377562        1.9225972647        4.5168512314
 N         -3.0131501585       -0.0266330800       -1.1322875139
 N         -1.7190259831        2.2712133633        2.1348170706
 N         -2.1481861025       -0.6977822994       -3.6808300133
 N          4.1514592373        1.0767480836       -1.7967027888
 N          4.1078041955       -1.4485058755       -3.0613662878
 H          5.1101006305       -6.1234765138        4.3262092301
 H          6.6735602180       -6.0979422303        3.5044508512
 H          4.9896189231       -7.4491256195        2.2425718454
 H          5.5427401062       -6.0586739464        1.3048308535
 H         -3.7915663703        3.8037819665        5.7003107993
 H         -4.3001739257        2.4616269357        6.7301399360
 H         -4.6180183131        1.0250583261        4.7443741528
 H         -5.5709066802        2.5034418957        4.5804813527
 H         -4.2200714091        3.1485247088       -3.4179624706
 H         -5.9341565565        2.9060095230       -3.0663351649
 H         -5.3425412039        2.1049670307       -5.3569592361
 H         -5.9188193989        0.7840100598       -4.3352594025
 H          8.6379955196        1.1926965710       -2.5429425678
 H          8.0423424028       -0.1795019221       -1.6044259702
 H          8.5516098348       -0.8946989459       -3.9172100789
 H          7.4755158377        0.3516302440       -4.5567381587
 H          6.0303377655       -3.8229187494        4.2932306644
 H          6.1501005346       -3.8765659716        2.5321834104
 H          3.0767850102       -6.2766536076        1.1650858586
 H          2.9536512445       -6.2068520730        2.9245405889
 H         -2.3554751663        1.1178365677        5.9741695744
 H         -1.8187263578        2.6539312842        6.6612606997
 H         -3.8114558423        3.4996153594        3.1377472292
 H         -4.3652005002        1.9623858405        2.4673775324
 H         -5.4006802690        0.8316017659       -1.8076530446
 H         -4.5061630145        2.2040039894       -1.1479086116
 H         -2.9903910319        1.4487021487       -4.9130046725
 H         -3.8966928364        0.0913699218       -5.5881834866
 H          6.3122788148        1.9668602068       -2.9267576261
 H          6.6417482777        1.8257631025       -1.1983159912
 H          6.6395061310       -1.9925112275       -2.7805516508
 H          6.3242182918       -1.8420775523       -4.5116106981
 H          1.2338858208       -0.0247852702        4.4411394061
 H          0.6140159440       -1.3547991675       -0.5608085042
 H          1.5447622579        0.4133793567        1.0694192357
 H          0.3490992334       -0.6494636067       -3.9071017779
 H          5.0623353594       -0.0331712752        2.5271850394
 H         -0.2863359699       -3.8507430559        2.7844758055
 H          2.7913711111        3.5949708385        2.7966415450
 H         -3.3486188489       -1.3954617585        1.0213535570
 H         -1.1673252817        3.5102662402       -0.0531629377
 H         -1.2240507736       -4.2546857626       -2.2457779065
 H          2.4427300424        2.8702229202       -2.3053732248
 H          3.0183631404       -3.6606130349       -2.4477942625
 H          2.5121411974       -2.0737382993        4.3755231955
 H          2.3392810847       -2.7117221237        0.3406066650
 H          0.5389456242        3.5615861078        3.6026394926
 H         -0.9721556130        0.1614461913       -1.4339316829
 H         -0.5186233151        0.5840512336        2.2077662664
 H         -2.7273909825       -2.4781205048       -2.7913357121
 H          3.5665222757        0.0286191397       -0.1065996064
 H          2.7310887931       -0.3051168431       -4.1048938855
 H          3.5495966392       -4.0682175175        4.1431891646
 H          4.0273487979       -3.9714225804        1.1241500589
 H         -1.5874291650        3.6131984698        4.3660408239
 H         -2.3941896294        0.8043377671        3.4781680613
 H         -2.4850453993        1.5205414224       -2.4505642400
 H         -4.2124989091       -0.8522223524       -3.2958843103
 H          5.5090470939       -0.3953030139       -1.1475018820
 H          4.9347589931        0.1901215734       -4.0936891452
 C        -12.5743816180        6.4817429635       -2.9371137459
 C        -13.4497313219        5.4965928610       -3.7144955698
 O        -11.5138310759        5.8009660417       -2.2877211729
 C        -10.7359807331        5.0767329709       -3.2262401993
 C        -11.6113475816        4.0914270065       -4.0033903466
 O        -12.6720816487        4.7720907360       -4.6528927927
 H        -13.1464130936        6.9755429790       -2.1514782414
 H        -13.9266391301        4.7960685156       -3.0137067594
 H        -10.2594668873        5.7773227703       -3.9271360996
 H        -12.0243732446        3.3422207692       -3.3124721265
 H        -14.2114166417        6.0221795270       -4.2905447891
 H         -9.9743893496        4.5514631987       -2.6498473575
 H        -11.0397390584        3.5976307495       -4.7893423865
 H        -12.1616397575        7.2312032352       -3.6278891698