142
-211.12746635
 C          5.3860025407       -5.6436621182        3.5812788568
 C          4.5404303316       -6.4083343508        2.5680426693
 C         -3.7426371066        3.0531864460        6.2650510177
 C         -4.6683775233        2.3248481597        5.2960337833
 C         -6.4394955373        1.5683601238       -2.1064104028
 C         -6.7481514718        0.5225986396       -3.1730025260
 C          6.3576784240       -0.1050931594       -3.5690770830
 C          5.9649338415       -1.0854317887       -4.6694838307
 C          5.2921490546       -4.1438975627        3.3255187250
 C          3.0896750335       -5.9462001191        2.6304099611
 C         -2.3141724614        2.5396417916        6.1246692824
 C         -4.1796103711        2.4956609196        3.8620812469
 C         -5.8292160556        0.9092276569       -0.8746081990
 C         -5.4846534315       -0.2425247038       -3.5500073925
 C          5.1456818792        0.7021054059       -3.1202439822
 C          4.8576078841       -2.0125373819       -4.1820822753
 C          1.7550034180        0.6198397496        3.7736777257
 C         -0.9131508944       -2.0635875987        0.8710199459
 C          0.4142329994        0.9838288436        0.3044020976
 C         -0.9248356648       -2.3656030987       -2.8400864728
 C          3.6945685698        0.4794546403        2.3525897810
 C         -1.0650451677       -3.2298151218        2.9713732758
 C          2.4057401145        2.5212127844        2.4459511269
 C         -2.9603332238       -1.9815506658        2.1370373259
 C         -1.2015297141        2.6843156210       -0.2415405234
 C         -1.5603327918       -4.2716852503       -1.5115335922
 C          0.5962245307        2.1777675571       -1.7777177801
 C          0.7550392073       -3.9306552083       -2.1125774104
 C          2.9896589390       -1.5092043031        3.6545909333
 C          1.0429990264       -3.3334585075        1.6719936889
 C          0.3240200792        2.6388408511        3.7593107542
 C         -2.8098948952       -0.7842721486       -0.0299001489
 C         -1.3873594989        1.4567267423        1.9072285315
 C         -3.2731705694       -2.5989447776       -2.0962440564
 C          2.2735848947        0.4394811893       -1.2203309051
 C          1.4327205931       -1.9307868755       -3.4115112399
 C          2.8218585255       -0.1142251632        3.2685323844
 C         -0.3287999318       -2.8736923717        1.8399197298
 C          1.5290016017        1.9301510617        3.3547610432
 C         -2.2237136584       -1.6136927007        1.0116992113
 C         -0.7260538267        1.7112118468        0.6367825405
 C         -1.9109266471       -3.1029978346       -2.1861995996
 C          1.0821652112        1.2115811893       -0.8948320781
 C          0.4066837320       -2.7620137421       -2.7951941861
 C          3.4765616188        1.7867486009        1.9678011735
 C         -2.3637407453       -2.7757884525        3.0989418809
 C         -0.5347724850        2.8935451734       -1.4348021789
 C         -0.2346066575       -4.6677871237       -1.4946060502
 C          3.8425687057       -3.6649704941        3.3918758422
 C          2.9799587352       -4.4435718676        2.3648463427
 C         -1.8033904701        2.7205489911        4.6975582984
 C         -2.7550283229        1.9739734637        3.7047900095
 C         -4.5573807988        0.1482065573       -1.2348732121
 C         -4.8716735365       -0.9246120146       -2.3297082760
 C          4.0285418059       -0.2152959491       -2.6191287126
 C          3.6317901390       -1.2175058354       -3.7338378943
 Br         4.6643116235        2.5994063786        0.7105771596
 Br        -3.3649244761       -3.2490237865        4.6563011371
 Br        -1.2053875125        4.2079323930       -2.6497878684
 Br         0.2396597651       -6.2633734801       -0.5561829629
 N          3.7811431772       -2.2784735147        3.0411763056
 N          1.6230787132       -4.0363206153        2.5437991573
 N         -0.5247580725        2.1153076891        4.5389801987
 N         -4.0505917813       -0.5462418149       -0.0949475280
 N         -2.2727602511        2.2241462756        2.3843220928
 N         -3.6209885688       -1.5195993611       -2.6586249468
 N          2.8784994441        0.5760919981       -2.3184197159
 N          2.6608948953       -2.1129062486       -3.1819456344
 H          5.0316327523       -5.8632542969        4.5908688529
 H          6.4285174897       -5.9591776848        3.5139023916
 H          4.5869961986       -7.4791348216        2.7721323025
 H          4.9328734715       -6.2395452497        1.5628687638
 H         -3.7655720044        4.1250763018        6.0554254955
 H         -4.0825215162        2.9028420860        7.2909602177
 H         -4.6936396246        1.2618972897        5.5464609609
 H         -5.6832583398        2.7159678129        5.3832317787
 H         -5.7388149390        2.3031436297       -2.5092900539
 H         -7.3528037406        2.0936040386       -1.8226055077
 H         -7.1584707942        1.0049086045       -4.0616137295
 H         -7.4962590763       -0.1766408785       -2.7925098609
 H          7.1304171250        0.5751680488       -3.9303946590
 H          6.7641249898       -0.6550339090       -2.7174636400
 H          6.8300632778       -1.6792212913       -4.9692957937
 H          5.6166871607       -0.5311191409       -5.5438402932
 H          5.8756162996       -3.5928147179        4.0659469368
 H          5.6889308582       -3.9038105054        2.3376465436
 H          2.4868310050       -6.4753602916        1.8899167426
 H          2.6689615159       -6.1517014658        3.6159185708
 H         -2.2669944088        1.4788080199        6.3760511484
 H         -1.6476419638        3.0769762316        6.8024306831
 H         -4.1962286695        3.5488698373        3.5772215918
 H         -4.8254154376        1.9485612913        3.1730069827
 H         -6.5367430234        0.2088234850       -0.4279530738
 H         -5.5797217039        1.6623992475       -0.1250983298
 H         -4.7433627979        0.4364340991       -3.9745462231
 H         -5.7100890619       -1.0060320047       -4.2973962167
 H          4.7564686363        1.2935686213       -3.9503807423
 H          5.4186335122        1.3886134827       -2.3165077853
 H          5.2085262339       -2.6081923576       -3.3376591930
 H          4.5564988814       -2.6987545263       -4.9763211929
 H          1.0635587729        0.1811906097        4.4763034392
 H         -0.3490576091       -1.7858062474       -0.0080827908
 H          0.7871431345        0.2395080250        0.9936807014
 H         -1.2175845254       -1.4636762707       -3.3549026751
 H          4.5186644002       -0.0980851925        1.9653898428
 H         -0.6032203643       -3.8551571641        3.7182680420
 H          2.2435604129        3.5348659216        2.1116525360
 H         -3.9758837932       -1.6329819542        2.2346252148
 H         -2.0812122898        3.2469039013        0.0269364569
 H         -2.3125999560       -4.8530426797       -0.9999750583
 H          1.1188267050        2.3460716629       -2.7055022131
 H          1.7904828168       -4.2298787125       -2.0824201206
 H          2.3622547560       -1.8517988621        4.4890665756
 H          1.5350139630       -3.0274588564        0.7349716939
 H          0.1718673128        3.6288320337        3.3050042262
 H         -2.0971850458       -0.3850845051       -0.7665375915
 H         -1.0549299609        0.5493719249        2.4326292213
 H         -3.9620057445       -3.1820677045       -1.4676235653
 H          2.6085439995       -0.2663872541       -0.4436308454
 H          1.0666701935       -1.1222148301       -4.0592928317
 H          3.4139379446       -3.8527387558        4.3908689702
 H          3.3523134353       -4.2004267500        1.3540100225
 H         -1.7995042909        3.7867837105        4.4118733060
 H         -2.6990020609        0.9029835430        3.9604379986
 H         -3.8025858935        0.8265941444       -1.6659004482
 H         -5.5765315150       -1.6502779034       -1.8879519623
 H          4.3676888802       -0.7970794341       -1.7438797328
 H          3.2175808101       -0.6314174030       -4.5716206445
 C         -0.6699848839       10.4626727629       -7.5386053697
 C         -1.1248882922        9.3008869385       -8.4244429223
 O         -1.2438495939       10.3587903634       -6.2464216307
 C         -0.9102922493        9.1156568178       -5.6504530440
 C         -1.3650470527        7.9542827513       -6.5361660116
 O         -0.7904361620        8.0587752654       -7.8287745076
 H         -1.0043613063       11.4172955886       -7.9452325341
 H         -2.2131582437        9.3563458597       -8.5726820108
 H          0.1776382891        9.0602938973       -5.5012787410
 H         -2.4612757852        7.9635526437       -6.6200957038
 H         -0.6167237344        9.3239465834       -9.3886711076
 H         -1.4190203050        9.0912721365       -4.6868598068
 H         -1.0327893872        7.0001498432       -6.1271886460
 H          0.4265420899       10.4539416121       -7.4555317054