142
-211.12850674
 C          5.4087377498       -5.7113223087        3.5003375155
 C          4.6454631915       -6.3907901727        2.3680332697
 C         -3.8057250288        2.9672822166        6.1143929957
 C         -4.6694406985        2.2900322446        5.0551997218
 C         -5.8062732569        2.0831589806       -2.6015750370
 C         -6.0436088038        1.1422621090       -3.7785098131
 C          6.9746447897        0.1051829847       -3.0120066281
 C          6.6794259670       -0.7948481105       -4.2075122972
 C          5.3422118335       -4.1959293750        3.3498756671
 C          3.1964875047       -5.9194248548        2.3465211558
 C         -2.3766178637        2.4399555113        6.0533768488
 C         -4.0797435284        2.5094104100        3.6664970042
 C         -5.3408060713        1.3006098428       -1.3788618617
 C         -4.7770987514        0.3557812163       -4.0976912082
 C          5.7356146203        0.9065479971       -2.6314237683
 C          5.5153692308       -1.7278307760       -3.8942214227
 C          1.8274591305        0.5722224193        3.8748630724
 C         -0.6370528313       -1.9000347972        0.5393425539
 C          0.7440790934        1.0860927691        0.3868086068
 C         -0.3798353827       -2.0021996743       -3.1505618470
 C          3.8674768137        0.4981285530        2.5962839265
 C         -0.9662872978       -3.2019479235        2.5369901921
 C          2.5956912956        2.5477913672        2.7305482616
 C         -2.7800561708       -1.8791074630        1.6381034333
 C         -0.8311540972        2.8045381165       -0.2177488673
 C         -1.1917809680       -3.9554359415       -1.9985577682
 C          1.0694668931        2.3427908256       -1.6401078390
 C          1.1784181086       -3.6624405517       -2.3652984726
 C          3.0447435231       -1.5643469533        3.6962165319
 C          1.2419597553       -3.2364626352        1.4104475559
 C          0.4213559547        2.6097317467        3.8862340638
 C         -2.4412221591       -0.5355200105       -0.4198029341
 C         -1.1674023011        1.5099047131        1.8720978936
 C         -2.7917538517       -2.1916511972       -2.6327381752
 C          2.7045693229        0.5847662935       -1.0207952353
 C          2.0317800478       -1.6130519622       -3.4691291000
 C          2.9214280199       -0.1426562561        3.4008841582
 C         -0.1377605368       -2.7780265027        1.4963983139
 C          1.6469687511        1.9109220592        3.5295479868
 C         -1.9514894267       -1.4444804342        0.6042980339
 C         -0.4168849359        1.8046507540        0.6613473484
 C         -1.4436402134       -2.7396571483       -2.6328932794
 C          1.4943464148        1.3503188519       -0.7549718477
 C          0.9294266389       -2.4462701751       -3.0069825368
 C          3.6927833215        1.8313840911        2.2860890503
 C         -2.2690865243       -2.7443657664        2.5880100452
 C         -0.0842714848        3.0477685412       -1.3557338749
 C          0.1143436131       -4.3977449807       -1.8840755717
 C          3.8938169139       -3.7085248033        3.3337438854
 C          3.1155536181       -4.4001280620        2.1849362537
 C         -1.7659581198        2.6708412384        4.6735627840
 C         -2.6531819771        1.9752881595        3.5885971900
 C         -4.0610383792        0.5300430569       -1.6857726650
 C         -4.3059716903       -0.4440163014       -2.8856555909
 C          4.5633618848       -0.0200414783       -2.3024987427
 C          4.2639236823       -0.9361805538       -3.5169428916
 Br         4.9809709341        2.7079439893        1.1801683136
 Br        -3.3981820363       -3.3138192461        4.0206887147
 Br        -0.6755679245        4.3927378628       -2.5781286022
 Br         0.4526449544       -6.0567389221       -0.9981265690
 N          3.8683906522       -2.2994202143        3.0833498090
 N          1.7499338528       -3.9937631988        2.2815479190
 N         -0.4841793377        2.0585289227        4.5779230378
 N         -3.6675511088       -0.2597262395       -0.5632686352
 N         -2.0769166272        2.2690982595        2.3154358927
 N         -3.0510176597       -1.0637487757       -3.1457059168
 N          3.3986311763        0.7692238073       -2.0575066990
 N          3.2254056615       -1.8404391330       -3.1258908730
 H          4.9724320899       -6.0010903586        4.4588375397
 H          6.4520156679       -6.0314387280        3.4943081390
 H          4.6704395667       -7.4741013708        2.4955835946
 H          5.1195841888       -6.1528591771        1.4132956747
 H         -3.8019478492        4.0466908980        5.9461784923
 H         -4.2183632419        2.7822501979        7.1074177137
 H         -4.7240003302        1.2186020384        5.2608460294
 H         -5.6835166241        2.6915158816        5.0872228119
 H         -5.0436760674        2.8170582818       -2.8705266492
 H         -6.7244855235        2.6215559141       -2.3620834110
 H         -6.3460425237        1.7127970161       -4.6580627481
 H         -6.8499983970        0.4474733730       -3.5328069514
 H          7.7887369717        0.7913032761       -3.2505818972
 H          7.2872689947       -0.5061962772       -2.1626527571
 H          7.5615691562       -1.3862130888       -4.4585581182
 H          6.4285385976       -0.1787458722       -5.0738304346
 H          5.8657005037       -3.7067921295        4.1739368247
 H          5.8191951860       -3.8877746872        2.4179085552
 H          2.6534924846       -6.3868063654        1.5228287660
 H          2.6958343757       -6.1923253821        3.2767402027
 H         -2.3587137383        1.3694801462        6.2643363904
 H         -1.7534880878        2.9409516444        6.7970516423
 H         -4.0653813451        3.5729119092        3.4226872435
 H         -4.6814584480        1.9977807177        2.9132253831
 H         -6.1074638734        0.5906035659       -1.0648266952
 H         -5.1455405036        1.9777573715       -0.5455700682
 H         -3.9758214065        1.0338033747       -4.3960037603
 H         -4.9570776196       -0.3370478023       -4.9222140495
 H          5.4378789600        1.5573742313       -3.4549593473
 H          5.9379606904        1.5351591867       -1.7621687987
 H          5.7714298270       -2.3846271871       -3.0611250546
 H          5.2845774029       -2.3542028702       -4.7583741994
 H          1.0804789120        0.0977541353        4.4922463184
 H         -0.0014715098       -1.5711099037       -0.2706123389
 H          1.0683764676        0.3196303303        1.0763053828
 H         -0.5968946016       -1.0632934218       -3.6358554923
 H          4.7125650323       -0.0646842640        2.2335284361
 H         -0.5707066504       -3.8808352480        3.2751226460
 H          2.4689034671        3.5835979397        2.4537536299
 H         -3.7977506953       -1.5253122702        1.6770929432
 H         -1.7275336391        3.3601092863        0.0060430458
 H         -2.0049517946       -4.5372220334       -1.5913090760
 H          1.6546157427        2.5384328328       -2.5241445262
 H          2.1972548038       -3.9984696281       -2.2576993821
 H          2.3559758141       -1.9561626265        4.4573722611
 H          1.8072649738       -2.8772287498        0.5357196475
 H          0.3079082482        3.6223282067        3.4719285226
 H         -1.6655135066       -0.1062783834       -1.0709624906
 H         -0.8806542524        0.5791551035        2.3834209460
 H         -3.5540148474       -2.7884071187       -2.1107902911
 H          2.9704380123       -0.1618977934       -0.2555410779
 H          1.7521017640       -0.7587222139       -4.1009313516
 H          3.3843272944       -3.9648401675        4.2780549365
 H          3.5705759806       -4.0875947685        1.2283376778
 H         -1.7331324704        3.7476187055        4.4324399018
 H         -2.6266179575        0.8948256944        3.8060669121
 H         -3.2565863953        1.2162378546       -1.9979350866
 H         -5.0735060389       -1.1714146847       -2.5692206523
 H          4.8104556329       -0.6656372222       -1.4411354899
 H          3.9468189120       -0.2861034329       -4.3499440163
 C         -5.5077509785        7.7286978688       -6.7019690260
 C         -5.1587876899        8.7129354553       -5.5836696143
 O         -4.6438314603        6.6054746575       -6.6654916525
 C         -4.7048571035        5.9673037264       -5.4004221699
 C         -4.3613277534        6.9522001287       -4.2812822581
 O         -5.2281356629        8.0741870291       -4.3203011525
 H         -5.3713305642        8.1868724096       -7.6816617014
 H         -4.1436278244        9.1046636151       -5.7423884312
 H         -5.7166118490        5.5666986626       -5.2412958991
 H         -3.3200135224        7.2860772576       -4.3929178293
 H         -5.8739634139        9.5350788992       -5.5504369864
 H         -3.9804327808        5.1538139668       -5.4352657016
 H         -4.4990267904        6.4940746819       -3.3021774535
 H         -6.5493500804        7.3952594052       -6.5856332217