142
-211.12721458
 C          4.3534281950       -6.5817659564        2.6733011088
 C          4.1243907027       -6.8605762744        1.1913820824
 C         -5.6340192413        1.5310855690        3.9660138791
 C         -6.0038444113        1.2038753850        2.5229286496
 C         -4.1894783413        3.1234052508       -4.8828317747
 C         -3.9011823669        2.5264606751       -6.2565737172
 C          7.9271165709        0.8397493062       -0.8136353559
 C          8.1714637784        0.3358139684       -2.2323450423
 C          4.2620596950       -5.0858249326        2.9514593729
 C          2.7694282483       -6.3187113235        0.7526295083
 C         -4.2587312773        0.9672302588        4.3047925020
 C         -4.9536659644        1.7575953399        1.5665041471
 C         -4.1506797082        2.0390063849       -3.8118728239
 C         -2.5484677658        1.8233830808       -6.2590383539
 C          6.5813610619        1.5493012248       -0.7264164769
 C          7.0464311653       -0.5974457662       -2.6647860670
 C          0.5488584125       -0.4633982578        3.4211966311
 C         -0.3183226975       -1.7503171215       -1.1638422912
 C          0.8213393478        1.0690934046        0.0749778604
 C          1.3409004869       -0.8340535439       -4.3373802279
 C          2.9223925335       -0.2912235265        3.0490106889
 C         -1.3002464273       -3.5296724411        0.1263239589
 C          1.5810724370        1.7070344861        3.2591924605
 C         -2.7147365296       -1.9195212781       -0.9928992545
 C         -0.5249647995        2.9573268163       -0.5745859371
 C          0.3071689972       -3.0040825178       -4.1811738999
 C          1.7973178416        2.8359353262       -1.2368188924
 C          2.6093974810       -2.7075346602       -3.5111015958
 C          1.8615144794       -2.5292277690        3.1234686601
 C          1.1668339700       -3.3735390413       -0.0501419670
 C         -0.8689908248        1.5652613573        3.4706272586
 C         -1.7064463312       -0.0899631435       -2.3297474614
 C         -1.5306054907        1.1452776179        0.7875345538
 C         -1.0651678746       -1.0756961329       -4.8648178381
 C          3.1977040298        0.9054982427       -0.5607690893
 C          3.6574990668       -0.4628021728       -3.5823700338
 C          1.7794057747       -1.0773506266        3.2179268045
 C         -0.1667681357       -2.8817437392       -0.3680390892
 C          0.4376357149        0.9264072892        3.4241905986
 C         -1.5844355568       -1.2633798533       -1.4788831661
 C         -0.4035036972        1.7315990733        0.0789521607
 C          0.2208421943       -1.6487554005       -4.4969083135
 C          1.9254815940        1.6143926002       -0.5732270356
 C          2.5285517829       -1.3496875924       -3.8314518585
 C          2.8035546177        1.0831715851        3.0841669044
 C         -2.5503316239       -3.0356105778       -0.1933996320
 C          0.5757174936        3.4814822484       -1.2269288696
 C          1.5028421091       -3.5096133972       -3.7023485105
 C          2.9058274375       -4.5283512538        2.5209255915
 C          2.6683133168       -4.8148720071        1.0157754295
 C         -3.1919656365        1.5262301178        3.3669191619
 C         -3.5723942744        1.1947902795        1.8859193315
 C         -2.7972158054        1.3359440546       -3.7959685061
 C         -2.5023510046        0.7211346874       -5.2040242259
 C          5.4424251688        0.6179119496       -1.1461912547
 C          5.6909662278        0.1039372531       -2.5877671264
 Br         4.3638440097        2.1602800769        2.8483846015
 Br        -4.1006013028       -3.9131187408        0.4982291726
 Br         0.3963718075        5.1447529545       -2.1503170520
 Br         1.6086507134       -5.3650405096       -3.2586612886
 N          2.8981540557       -3.1073540388        2.6928072076
 N          1.3483638262       -4.3738665492        0.6960202996
 N         -1.9359199500        0.8956719540        3.5946145379
 N         -2.8021195961        0.2617965672       -2.8549804836
 N         -2.5825052637        1.7963747651        1.0510068539
 N         -1.1978468908        0.1576842299       -5.1165028421
 N          4.2174865099        1.3518693817       -1.1534982091
 N          4.6509252098       -0.8303801600       -2.8950329662
 H          3.5999704163       -7.1081545160        3.2634357532
 H          5.3356309677       -6.9482107097        2.9764975773
 H          4.1622785254       -7.9342347082        1.0009774066
 H          4.9134576622       -6.3861123452        0.6038742421
 H         -5.6254973399        2.6148740456        4.1011556965
 H         -6.3766098440        1.1115454442        4.6464682620
 H         -6.0711566375        0.1205504248        2.4005019855
 H         -6.9779567236        1.6319510488        2.2813801201
 H         -3.4422149628        3.8864734965       -4.6536098869
 H         -5.1705493074        3.6009771243       -4.8813521351
 H         -3.9024982840        3.3125387275       -7.0133271959
 H         -4.6837722562        1.8089330381       -6.5138019839
 H          8.7187091923        1.5303133857       -0.5188064126
 H          7.9393428137       -0.0030683758       -0.1190780506
 H          9.1235538156       -0.1951206174       -2.2828998058
 H          8.2222809982        1.1855653343       -2.9167365096
 H          4.3989108768       -4.8862178170        4.0162670683
 H          5.0421396615       -4.5521171457        2.4059057757
 H          2.6118804331       -6.4974160716       -0.3127076184
 H          1.9674221436       -6.8170748651        1.2993088484
 H         -4.2625191313       -0.1201676518        4.2144912034
 H         -3.9850989088        1.2200014878        5.3312697774
 H         -4.9093283984        2.8454801703        1.6390087574
 H         -5.2025220866        1.4976398674        0.5360531308
 H         -4.9259084912        1.2936302147       -3.9966769520
 H         -4.3268322875        2.4720122642       -2.8255830777
 H         -1.7504691973        2.5371178087       -6.0480580392
 H         -2.3526283082        1.3770741471       -7.2361882321
 H          6.5701486976        2.4218440218       -1.3813734349
 H          6.3942489665        1.8915210921        0.2931453854
 H          7.0160173595       -1.4767342789       -2.0190781046
 H          7.2052827551       -0.9378181495       -3.6900960615
 H         -0.3484500814       -1.0489310751        3.5486605660
 H          0.5553954997       -1.2460423329       -1.5517483605
 H          0.9150126622        0.1245717812        0.5919066687
 H          1.2521462898        0.2121276324       -4.5861019660
 H          3.8723136687       -0.7766707887        2.8924079913
 H         -1.1732168026       -4.4041761029        0.7438381516
 H          1.5104728223        2.7843421551        3.2577566726
 H         -3.6906588068       -1.5378878998       -1.2464384447
 H         -1.4757302539        3.4654223980       -0.5611971542
 H         -0.5519696120       -3.6472915253       -4.2984012085
 H          2.6570502001        3.2497645843       -1.7386301946
 H          3.5346325419       -3.0981807030       -3.1188066216
 H          0.9570643922       -3.0796304972        3.4172189574
 H          2.0000282685       -2.8146086068       -0.5052650442
 H         -0.8744151515        2.6570954464        3.3370339585
 H         -0.7722941378        0.4670239914       -2.4941891456
 H         -1.3984971237        0.0961084021        1.0903260377
 H         -1.9203792329       -1.7673162775       -4.8543604977
 H          3.2073533270       -0.0412443515        0.0026967253
 H          3.5707353772        0.5498596782       -3.9997891848
 H          2.0881399315       -5.0122757586        3.0814682634
 H          3.4355595112       -4.2684696455        0.4391217058
 H         -3.1287246703        2.6250539981        3.4532825174
 H         -3.5660846602        0.0959987357        1.7974784261
 H         -1.9851934812        2.0522004239       -3.5891083056
 H         -3.2747221051       -0.0432346638       -5.3988216035
 H          5.3921369930       -0.2583127169       -0.4757667636
 H          5.6647862979        0.9792778816       -3.2586173031
 C         -7.7746692145        7.7812398786        6.1729140627
 C         -9.0068738859        6.8936887647        6.3606012469
 O         -6.7452878703        7.4029234199        7.0720456205
 C         -6.4083277095        6.0368407753        6.8991356193
 C         -7.6412671457        5.1513143279        7.0907236842
 O         -8.6680087522        5.5277757188        6.1886974434
 H         -8.0064588916        8.8227180649        6.3958631771
 H         -9.4196886559        7.0458870528        7.3683009922
 H         -5.9991274068        5.8855263948        5.8897381062
 H         -8.0052484584        5.2483004270        8.1237595063
 H         -9.7657181793        7.1167058782        5.6104987404
 H         -5.6468358563        5.8133445794        7.6465163224
 H         -7.4119124310        4.1079889621        6.8745119258
 H         -7.4103614040        7.6912940186        5.1392883947