142
-211.12679376
 C          3.3444360295       -6.8809956191        1.9528960388
 C          3.1354840013       -6.9433211081        0.4432185640
 C         -5.2580953036        2.5218444564        3.7179536418
 C         -5.5382329999        2.4506793255        2.2201783071
 C         -2.8428065363        4.9930089620       -4.7428551382
 C         -2.6012878518        4.4949758798       -6.1642749982
 C          8.3300788488       -0.0196982420       -0.4668864315
 C          8.5586945758       -0.3924246964       -1.9281458385
 C          3.5052983870       -5.4347324784        2.4070377607
 C          1.9203277095       -6.1170591377        0.0391292022
 C         -4.0154749832        1.7106584105        4.0677818935
 C         -4.3341122443        2.9486625108        1.4286133443
 C         -3.0715650189        3.8182901901       -3.7983511470
 C         -1.4112980250        3.5426899903       -6.2006521344
 C          7.1327485548        0.9141525668       -0.3373758237
 C          7.3089771063       -1.0417140178       -2.5113816369
 C          0.5769405784       -0.3403174763        3.3329290997
 C         -0.1757271392       -0.8882416480       -1.4513384451
 C          1.3480882479        1.4408941795        0.2028899153
 C          1.7808739070       -0.0048000085       -4.4358657526
 C          2.9653827514       -0.5130242389        3.0745148701
 C         -1.5381625500       -2.5492882357       -0.3656679496
 C          1.9409288316        1.6404834376        3.4633183580
 C         -2.5646827658       -0.5989744755       -1.3609673526
 C          0.4084105759        3.6105504898       -0.2542917600
 C          0.3504364600       -1.9378588198       -4.5735778174
 C          2.7091518388        3.1369915313       -0.8289614387
 C          2.6209448559       -2.1646281618       -3.7793564623
 C          1.5616321116       -2.5433839246        2.8405298856
 C          0.9195673534       -2.8636695450       -0.4651337882
 C         -0.5112774689        1.8708713424        3.5477135932
 C         -1.1617156938        1.1157617206       -2.4771095239
 C         -0.9971438430        1.8618160669        0.8045487857
 C         -0.5901036663        0.2817973742       -5.0834919569
 C          3.6895626233        0.9094966306       -0.3565982359
 C          4.0715368226       -0.1689241099       -3.5421130313
 C          1.7063408876       -1.1184480087        3.1073551027
 C         -0.2803931361       -2.0952226684       -0.7666390819
 C          0.6825965192        1.0407704389        3.4909990660
 C         -1.3086106723       -0.1354639741       -1.7500521262
 C          0.2637845395        2.3142481416        0.2383343519
 C          0.5399719992       -0.5659689177       -4.7343663610
 C          2.5714619330        1.8424492416       -0.3246849693
 C          2.8162033737       -0.7905680661       -3.9430686061
 C          3.0595206718        0.8505905580        3.2644475544
 C         -2.6538332297       -1.7923164185       -0.6681043682
 C          1.6265444241        3.9943074994       -0.7844397663
 C          1.3979159039       -2.7127997055       -4.1079431568
 C          2.2864277978       -4.6005786579        2.0154577377
 C          2.0771122610       -4.6603967485        0.4807114299
 C         -2.7980667250        2.2104757719        3.2941931017
 C         -3.0907349313        2.1295154793        1.7590298521
 C         -1.8810189895        2.8650479938       -3.8163423495
 C         -1.6350358225        2.3509851657       -5.2733556516
 C          5.8690031894        0.2684050124       -0.9096319163
 C          6.1024507224       -0.1110770277       -2.3943337352
 Br         4.7789050618        1.6824100867        3.2102543455
 Br        -4.3726451904       -2.4037064380       -0.1008656281
 Br         1.8118316746        5.7610420172       -1.4881435478
 Br         1.1259846965       -4.5899458105       -3.8775242045
 N          2.5084128337       -3.2302205902        2.3649691048
 N          0.8769041031       -3.9478229379        0.1777780435
 N         -1.6728674121        1.3683421918        3.5196257991
 N         -2.1407943551        1.7233320500       -2.9987605610
 N         -1.9495843549        2.6491118169        1.0756987349
 N         -0.4697585865        1.5359338336       -5.2050381565
 N          4.8012206950        1.2159950240       -0.8671807608
 N          4.9289941977       -0.7897787015       -2.8539960920
 H          2.4847409822       -7.3268604204        2.4580660969
 H          4.2322781078       -7.4507467353        2.2322212715
 H          2.9894931875       -7.9773033218        0.1269599760
 H          4.0222644680       -6.5577281590       -0.0645796971
 H         -5.1062076046        3.5631935586        4.0112371022
 H         -6.1124288056        2.1355032761        4.2760822348
 H         -5.7549078445        1.4175830031        1.9391359886
 H         -6.4115792296        3.0568395939        1.9745823429
 H         -1.9760173807        5.5658887009       -4.4056207365
 H         -3.7120044581        5.6522067843       -4.7204840623
 H         -2.4102568676        5.3392169614       -6.8286352031
 H         -3.4924767611        3.9763353431       -6.5251936387
 H          9.2160384601        0.4717464694       -0.0618891246
 H          8.1501903272       -0.9249343219        0.1171806913
 H          9.3996865282       -1.0828353571       -2.0118042906
 H          8.8018050997        0.5062257355       -2.4994375063
 H          3.6286949302       -5.3858535476        3.4908826225
 H          4.3896170915       -4.9903781609        1.9470998669
 H          1.7840171448       -6.1410379764       -1.0437047459
 H          1.0175307693       -6.5202751351        0.5004453717
 H         -4.1702166865        0.6580785980        3.8251504447
 H         -3.8017222093        1.7830030558        5.1361597919
 H         -4.1319371604        3.9954539132        1.6610989859
 H         -4.5247673958        2.8719346450        0.3567230660
 H         -3.9644994804        3.2632005089       -4.0902900426
 H         -3.2140921776        4.1739978782       -2.7763417170
 H         -0.5032214769        4.0594020963       -5.8857931470
 H         -1.2528617194        3.1691516608       -7.2144299379
 H          7.3175440057        1.8438609174       -0.8777126436
 H          6.9532766653        1.1641640781        0.7100082235
 H          7.0820608558       -1.9681757138       -1.9810878039
 H          7.4609944633       -1.2851881260       -3.5649468656
 H         -0.4064968749       -0.7836005823        3.3556090513
 H          0.7954319854       -0.5313853757       -1.7637085603
 H          1.2363722616        0.4408343943        0.5973044461
 H          1.9055901232        1.0591231073       -4.5652750867
 H          3.8356951426       -1.1245083222        2.8980140456
 H         -1.6099378814       -3.4830037870        0.1684306683
 H          2.0388175127        2.7090140318        3.5826799212
 H         -3.4368694255       -0.0130351487       -1.6020963033
 H         -0.4343265425        4.2819284535       -0.2170570520
 H         -0.6053124636       -2.3866180387       -4.7988325854
 H          3.6598211441        3.4388942246       -1.2380282617
 H          3.4299444369       -2.7659353892       -3.3966536179
 H          0.5683682585       -2.9680090581        3.0414977585
 H          1.8629366080       -2.4331103523       -0.8372906762
 H         -0.3420951060        2.9576327967        3.5550223282
 H         -0.1314852046        1.4949492622       -2.5485005001
 H         -1.0630500733        0.7790407626        0.9871815932
 H         -1.5611773218       -0.2261490448       -5.1775929363
 H          3.4963006981       -0.0772066962        0.0936396174
 H          4.2039173640        0.8791059461       -3.8444459691
 H          1.3727673228       -4.9988516856        2.4884982708
 H          2.9585671056       -4.2030503230       -0.0028263054
 H         -2.5841011673        3.2665209065        3.5341149858
 H         -3.2503717480        1.0640300835        1.5256363346
 H         -0.9588839739        3.3836748366       -3.5065874515
 H         -2.5283193529        1.7776942911       -5.5767102286
 H          5.6213654173       -0.6544325013       -0.3556242629
 H          6.2763870332        0.8256020196       -2.9506874609
 C        -12.4007949560       -1.8919516948        7.5375764645
 C        -11.3946874184       -1.4484559162        6.4736789283
 O        -11.8366027630       -1.7823514412        8.8338888968
 C        -11.4037896079       -0.4547676839        9.0795706854
 C        -10.3973761673       -0.0117117136        8.0157407439
 O        -10.9617635325       -0.1208137425        6.7197905395
 H        -12.6675930631       -2.9410022452        7.4089062700
 H        -10.5278877777       -2.1249680878        6.4822591393
 H        -12.2706120889        0.2218352652        9.0702445478
 H         -9.4963086677       -0.6389467732        8.0780766845
 H        -11.8511368733       -1.4419082153        5.4838200425
 H        -10.9477704549       -0.4610103232       10.0696944101
 H        -10.1300834050        1.0372262209        8.1447123322
 H        -13.3023548809       -1.2654161032        7.4754201653