142
-211.12897870
 C          1.7809942864       -6.7579026131        3.2595629854
 C          0.7350568334       -7.0151176800        2.1796417202
 C         -2.5461942136        5.0129954185        6.3753898389
 C         -3.6921471527        4.7861603798        5.3945267008
 C         -5.3862277902        5.1374311534       -2.3346935148
 C         -6.0874836262        4.3725714214       -3.4527467381
 C          5.3390453452       -2.0402042889       -3.3770642460
 C          4.6274430732       -2.7120608025       -4.5468585431
 C          2.3765164015       -5.3639099010        3.0993039231
 C         -0.3598736732       -5.9568521927        2.2379111744
 C         -1.4928265306        3.9210371080        6.2263177884
 C         -3.1682167003        4.7432997632        3.9634129951
 C         -5.1893715328        4.2402966348       -1.1178137674
 C         -5.2902486007        3.1290763417       -3.8301557814
 C          4.5742286389       -0.7984380257       -2.9360294864
 C          3.1973043063       -3.0742128017       -4.1618640637
 C          1.3271753441        0.4483270027        3.7923876531
 C         -2.1651368634       -0.6547585521        0.6006763405
 C          0.3317801554        1.4258835640        0.3860158215
 C         -2.2132639474       -0.8491281285       -3.0777695722
 C          3.0509237161       -0.4772038319        2.3871811381
 C         -2.8898923698       -1.6934502994        2.6477825804
 C          2.8003001179        1.9178715581        2.5791501030
 C         -4.0099239641        0.2870973210        1.8294373659
 C         -0.4094939147        3.6549782286       -0.1443616943
 C         -3.7037711377       -2.2905226964       -1.8521332945
 C          1.0159761053        2.4504116422       -1.6819814408
 C         -1.4575609310       -3.0208775935       -2.3612850336
 C          1.4842699846       -2.0000270783        3.5577092316
 C         -0.9968816886       -2.6786249608        1.3866862187
 C          0.9426077919        2.8924658760        3.8699543898
 C         -3.2710789525        1.3544602297       -0.2838193106
 C         -1.1107448169        2.6043594298        1.9902370733
 C         -4.4448806064       -0.0093099789       -2.4174328042
 C          1.7982599030        0.1614210614       -1.1401313190
 C          0.1156017833       -1.5086159055       -3.5375387861
 C          1.9725797061       -0.6604455100        3.2570619716
 C         -2.0316244715       -1.6661961958        1.5470706911
 C          1.7213875881        1.7394606885        3.4439512168
 C         -3.1471212965        0.3235395713        0.7346799481
 C         -0.3952530442        2.5644807755        0.7242720650
 C         -3.4562558595       -1.0747601995       -2.4882879958
 C          1.0429551308        1.3617290721       -0.8083493994
 C         -1.2071619624       -1.8054323216       -3.0036857675
 C          3.4510542586        0.8059943017        2.0743209715
 C         -3.8597642546       -0.7167488251        2.7683426847
 C          0.2893688727        3.5729957159       -1.3346924027
 C         -2.7023444775       -3.2443123531       -1.8089511004
 C          1.2891953106       -4.2919066824        3.1628585893
 C          0.2240256087       -4.5528964958        2.0670741433
 C         -0.9451453403        3.8797200999        4.8020932553
 C         -2.1216907398        3.6460508939        3.7980889202
 C         -4.3786044418        3.0006416219       -1.4812976464
 C         -5.1003835133        2.2126456786       -2.6242333578
 C          3.1413026936       -1.1519218830       -2.5314951439
 C          2.4181891450       -1.8363131401       -3.7197959012
 Br         4.9224082764        1.0607917723        0.8812358976
 Br        -5.0239318022       -0.7460294246        4.2831682411
 Br         0.2375932181        5.0550899147       -2.5392034688
 Br        -3.0449002493       -4.9023147330       -0.9236008491
 N          1.8678082986       -3.0088152317        2.9023152244
 N         -0.8179191466       -3.5913651805        2.2383434411
 N         -0.0624872208        2.7757187876        4.6303163377
 N         -4.2727626226        2.1233144070       -0.3597041758
 N         -1.5693843710        3.6758932652        2.4813919037
 N         -4.2426518467        1.1229816775       -2.9459485441
 N          2.4315095351        0.0486072479       -2.2249712894
 N          1.1184209578       -2.2251706689       -3.2632789793
 H          1.3162806766       -6.8438033122        4.2443085588
 H          2.5764548026       -7.5023191595        3.1960965051
 H          0.2901054590       -8.0020641831        2.3152767716
 H          1.2110938505       -6.9921932591        1.1969080870
 H         -2.0893601289        5.9866291942        6.1835081637
 H         -2.9248875521        5.0140930978        7.3987289553
 H         -4.1887552145        3.8414924765        5.6273021593
 H         -4.4282160360        5.5861307941        5.4884667011
 H         -4.4137773512        5.4879696060       -2.6878159000
 H         -5.9768180149        6.0101347169       -2.0515999151
 H         -6.1984464126        5.0117922267       -4.3300767712
 H         -7.0858523267        4.0772154759       -3.1218390590
 H          6.3531356702       -1.7569602793       -3.6613750721
 H          5.4055386871       -2.7399599115       -2.5409577471
 H          5.1630411427       -3.6156828903       -4.8426436449
 H          4.6119397922       -2.0327946775       -5.4020752520
 H          3.1066456543       -5.1673473999        3.8871193907
 H          2.8871053933       -5.2795476211        2.1384799377
 H         -1.0980562376       -6.1255848517        1.4515913761
 H         -0.8762549788       -5.9988196025        3.1981372778
 H         -1.9227715724        2.9456282312        6.4596101100
 H         -0.6619712661        4.0966427514        6.9127927110
 H         -2.7134763614        5.6984869627        3.6959082112
 H         -3.9845049653        4.5503894653        3.2649196934
 H         -6.1540298654        3.9195393774       -0.7212486597
 H         -4.6623418047        4.7793783050       -0.3285376121
 H         -4.3060559837        3.4106422097       -4.2080550582
 H         -5.8053378695        2.5695474795       -4.6137332863
 H          4.5316218571       -0.0711673716       -3.7480889119
 H          5.0716905632       -0.3255469169       -2.0874829286
 H          3.1984455682       -3.7917863859       -3.3396062992
 H          2.6767858988       -3.5306358439       -5.0065358839
 H          0.4888417608        0.3322359537        4.4616899154
 H         -1.5055239454       -0.6304923337       -0.2551695645
 H          0.3496319035        0.5865887348        1.0667015694
 H         -2.0418805502        0.0991542834       -3.5631542911
 H          3.5453493292       -1.3433106094        1.9773635147
 H         -2.7783850913       -2.4797968395        3.3768099007
 H          3.1163658984        2.9114097781        2.2990192789
 H         -4.7702801766        1.0458548640        1.9217422782
 H         -0.9701496802        4.5344643459        0.1284154173
 H         -4.6608111485       -2.4792684691       -1.3894833484
 H          1.5670455818        2.3904812522       -2.6066113981
 H         -0.6710992036       -3.7565516296       -2.3083979234
 H          0.7397577070       -2.0676524236        4.3630065103
 H         -0.3861712995       -2.5920096227        0.4738527801
 H          1.2477071115        3.8607181112        3.4464601226
 H         -2.4331825353        1.4119964519       -0.9941712074
 H         -1.2153225498        1.6343278739        2.4983487107
 H         -5.3483838372       -0.2296929379       -1.8301167101
 H          1.7790554027       -0.6358668888       -0.3799914167
 H          0.1882701779       -0.6049354712       -4.1583527947
 H          0.7724841096       -4.3165418152        4.1372854286
 H          0.7156467960       -4.4550985510        1.0829448359
 H         -0.4691237709        4.8394445746        4.5353694868
 H         -2.5478472286        2.6579004070        4.0371612490
 H         -3.3863254630        3.2813023785       -1.8709864313
 H         -6.0739567131        1.8748014422       -2.2284060074
 H          3.1427096788       -1.8562841414       -1.6807634761
 H          2.3591611204       -1.0987739423       -4.5381286133
 C          8.8358757200       -0.6356861668       -6.7693009029
 C          8.7674473457       -0.1402181131       -5.3235265372
 O          9.8417680535       -1.6250593936       -6.9100878430
 C          9.6062100994       -2.7066251755       -6.0239369057
 C          9.5373908806       -2.2119917295       -4.5779075820
 O          8.5313437009       -1.2227563613       -4.4389752382
 H          9.1077264970        0.1741044027       -7.4464524162
 H          9.7140407064        0.3514969189       -5.0576976021
 H          8.6597389154       -3.1993129948       -6.2897047878
 H         10.5097244982       -1.7902963025       -4.2859202171
 H          7.9380747690        0.5534070397       -5.1859717663
 H         10.4370865859       -3.3989137046       -6.1602617750
 H          9.2650741463       -3.0216761722       -3.9008348599
 H          7.8631922488       -1.0576899744       -7.0606242328