142
-211.12919434
 C          3.2494346147       -6.9055210936        2.2723936217
 C          2.9032588490       -7.0586234976        0.7947784180
 C         -5.0846301913        2.6845048329        4.1111810361
 C         -5.4704266359        2.5480674159        2.6419350165
 C         -3.4170894994        4.6484352473       -4.5309515182
 C         -3.2761985810        4.0732906592       -5.9365793856
 C          8.1830993356       -0.0272725787       -0.9808089827
 C          8.2789701778       -0.4776622038       -2.4348726665
 C          3.4658103106       -5.4364778681        2.6172263919
 C          1.6648080129       -6.2399558521        0.4506007277
 C         -3.8205133016        1.8847552757        4.4045715899
 C         -4.3266991844        3.0067925275        1.7441927092
 C         -3.5633533049        3.5268871680       -3.5087641172
 C         -2.0813863369        3.1292296837       -6.0082561862
 C          6.9945471923        0.9074121935       -0.7914973189
 C          6.9869882959       -1.1636464849       -2.8633644643
 C          0.6810827022       -0.2439726933        3.4542845288
 C         -0.4958126906       -1.0575575157       -1.1396745598
 C          1.2554122891        1.4407399094        0.1793800808
 C          1.2885207191       -0.2758220051       -4.3132630977
 C          3.0404052867       -0.4712676316        3.0275891895
 C         -1.7772349987       -2.6457043663        0.1371336320
 C          2.0754551056        1.7177884413        3.3706289455
 C         -2.8674361384       -0.7371409582       -0.8712268475
 C          0.2837594475        3.5948446992       -0.2859613707
 C         -0.1147684184       -2.2320174884       -4.2339174844
 C          2.5394503095        3.0990623136       -1.0019537953
 C          2.2182564037       -2.3883396336       -3.6248814335
 C          1.5966344944       -2.4884308829        3.0241060959
 C          0.6606275833       -2.9962417750       -0.1495198031
 C         -0.3616135756        1.9915593684        3.6285081585
 C         -1.5494891653        0.9022143318       -2.1858991912
 C         -1.0411477820        1.8885075992        0.9322780556
 C         -1.1318366990       -0.0546944287       -4.7797524063
 C          3.5540851017        0.8893051205       -0.5219884586
 C          3.6528289352       -0.3668955914       -3.6222213745
 C          1.7801195047       -1.0527032214        3.1900119574
 C         -0.5533549194       -2.2279473355       -0.3888971747
 C          0.8153985112        1.1417134908        3.5258348039
 C         -1.6441460941       -0.3089525560       -1.3852861696
 C          0.1757540456        2.3166991625        0.2609022574
 C          0.0369512856       -0.8677191310       -4.4781075754
 C          2.4386489571        1.8227283673       -0.4453596140
 C          2.3757192160       -1.0221582080       -3.8735331742
 C          3.1655129859        0.8991651752        3.1326851497
 C         -2.9078211247       -1.8911394502       -0.1105635940
 C          1.4613365177        3.9586200616       -0.9126476764
 C          0.9812586655       -2.9682712579       -3.8200121536
 C          2.2258390556       -4.6079641371        2.2846014677
 C          1.8762551472       -4.7612901772        0.7818549379
 C         -2.6600109843        2.3437856213        3.5252774513
 C         -3.0624759967        2.1997956149        2.0198314557
 C         -2.3691917023        2.5793136445       -3.5616893406
 C         -2.2214747382        1.9891354519       -5.0028104548
 C          5.6887279629        0.2286177709       -1.2097445854
 C          5.7869169502       -0.2341521452       -2.6863554118
 Br         4.8864452389        1.6978585654        2.9042377669
 Br        -4.5771544426       -2.4477805452        0.6321799854
 Br         1.5948852617        5.6997805563       -1.6883086609
 Br         0.7619033337       -4.8349105370       -3.4751978579
 N          2.4945665581       -3.2223246553        2.5245688678
 N          0.6609551277       -4.0499389200        0.5435807580
 N         -1.5265903837        1.5020440877        3.7044483601
 N         -2.5645022154        1.4808587977       -2.6701952104
 N         -1.9734294099        2.6879271459        1.2363457923
 N         -1.0418768285        1.1924376802       -4.9758521036
 N          4.6242372488        1.1766480234       -1.1241360619
 N          4.5836405930       -0.9453334222       -2.9950604072
 H          2.4348136848       -7.3052287008        2.8804319405
 H          4.1531687160       -7.4707980503        2.5061402703
 H          2.7188170009       -8.1078874929        0.5592662550
 H          3.7437152967       -6.7193731241        0.1853573240
 H         -4.9101583170        3.7372067998        4.3454141271
 H         -5.8961498392        2.3255138691        4.7456352960
 H         -5.7057971594        1.5039569532        2.4243023160
 H         -6.3594651617        3.1446314785        2.4324482046
 H         -2.5336931568        5.2445880217       -4.2913662134
 H         -4.2890421223        5.3024217650       -4.4802385492
 H         -3.1442953856        4.8802509498       -6.6591027208
 H         -4.1857204543        3.5288723781       -6.2007775149
 H          9.0981757796        0.4890339415       -0.6866397534
 H          8.0660232156       -0.9000731307       -0.3347540699
 H          9.1152081528       -1.1676954535       -2.5593448222
 H          8.4593284763        0.3897883809       -3.0736707534
 H          3.6873158817       -5.3221024737        3.6803279188
 H          4.3094993243       -5.0361343340        2.0525388654
 H          1.4301605684       -6.3291805180       -0.6118004083
 H          0.8040145194       -6.5988351552        1.0168857849
 H         -3.9934636502        0.8236378546        4.2187796936
 H         -3.5314239035        2.0015398777        5.4508970575
 H         -4.1087404347        4.0622129916        1.9150767006
 H         -4.5936393044        2.8830160355        0.6931320154
 H         -4.4702589087        2.9517056684       -3.7020826309
 H         -3.6324379702        3.9386295153       -2.5003291801
 H         -1.1586271080        3.6695272457       -5.7907046967
 H         -1.9936683262        2.7006412721       -7.0087571006
 H          7.1211030547        1.8075762375       -1.3949399220
 H          6.9091238758        1.2120127413        0.2533630132
 H          6.8190004966       -2.0602443546       -2.2642953011
 H          7.0434746646       -1.4644803085       -3.9115504600
 H         -0.3032882814       -0.6684269081        3.5766032766
 H          0.4492332650       -0.7268868747       -1.5467034104
 H          1.1720323902        0.4548485444        0.6145483493
 H          1.3835978532        0.7815918868       -4.5058371673
 H          3.8872989967       -1.1058700840        2.8211030634
 H         -1.8117955254       -3.5500057639        0.7230445003
 H          2.1957466600        2.7894173409        3.4228993139
 H         -3.7520907049       -0.1542778723       -1.0708003038
 H         -0.5557738926        4.2673869058       -0.2132128261
 H         -1.0779129622       -2.7042650589       -4.3559681197
 H          3.4592620856        3.3858458323       -1.4855988997
 H          3.0671905921       -2.9589485141       -3.2838220033
 H          0.6160624221       -2.8809725488        3.3270569150
 H          1.5744632573       -2.5953259999       -0.6164470025
 H         -0.1812078967        3.0751913812        3.5763179519
 H         -0.5279050968        1.2767595269       -2.3474345216
 H         -1.0921773615        0.8146883892        1.1649776330
 H         -2.0983182952       -0.5797359242       -4.7728821790
 H          3.3982225874       -0.0790151048       -0.0203136610
 H          3.7384250522        0.6669830088       -3.9843382198
 H          1.3545690811       -4.9598533739        2.8626438908
 H          2.7148062777       -4.3493137859        0.1929873842
 H         -2.4240569368        3.4071486511        3.7039970923
 H         -3.2369767173        1.1256884577        1.8430694419
 H         -1.4316397732        3.1169158655       -3.3440312096
 H         -3.1256201698        1.3902791526       -5.2090655404
 H          5.4975172447       -0.6620325936       -0.5854062668
 H          5.8977554800        0.6702788838       -3.3082648525
 C         -9.0269860366        1.2273458212        5.0459579576
 C        -10.1475144828        0.6733810118        5.9274764429
 O         -7.7710842043        1.0847867989        5.6893373149
 C         -7.5257137303       -0.2749769416        6.0096599458
 C         -8.6472422112       -0.8302217618        6.8892860467
 O         -9.9035849545       -0.6858324536        6.2485224789
 H         -9.1608639920        2.2948680805        4.8707229500
 H        -10.2134146036        1.2634329759        6.8532516312
 H         -7.4567941623       -0.8632557828        5.0834797266
 H         -8.6612355301       -0.2939355448        7.8494329408
 H        -11.1031695263        0.6961619985        5.4036397484
 H         -6.5718769886       -0.2974280635        6.5368067118
 H         -8.5140468667       -1.8982025578        7.0621948575
 H         -9.0112407384        0.6882243459        4.0880886989