142
-211.13117977
 C          3.5688965541       -6.6040465079        2.8847672141
 C          2.9867007234       -6.8977034883        1.5059891964
 C         -4.0334925067        3.5877126498        5.3206279461
 C         -4.7498213128        3.3045213347        4.0039152691
 C         -4.1304590376        4.4181066975       -3.6995153394
 C         -4.2519744960        3.7316634799       -5.0562910057
 C          7.8027831923       -0.3653114044       -1.8510868870
 C          7.6371719405       -0.9765675667       -3.2386701918
 C          3.8437475503       -5.1125432779        3.0371403761
 C          1.7103846279       -6.0946282621        1.2869390693
 C         -2.7727563517        2.7379368573        5.4338824876
 C         -3.8206791817        3.5725453554        2.8250889968
 C         -4.1082091508        3.3849359843       -2.5785609138
 C         -3.1064719074        2.7464789897       -5.2602890550
 C          6.6870812881        0.6350400323       -1.5741385692
 C          6.2740674779       -1.6473446984       -3.3636325443
 C          1.3430923967        0.2314453338        3.7835598958
 C         -0.7038363535       -1.0517321351       -0.4009863864
 C          1.2414025975        1.5189144285        0.3331611744
 C          0.4327990243       -0.6515824686       -3.8997583826
 C          3.5741122629       -0.1459592254        2.9577511860
 C         -1.7607432949       -2.5454365231        1.1622850475
 C          2.7532313554        2.1081439082        3.2428478542
 C         -3.0173730458       -0.7205126310        0.1865032296
 C          0.2323414811        3.6352364454       -0.2168864002
 C         -0.9878736554       -2.5196114561       -3.3581004868
 C          2.2943988968        2.9585901211       -1.2832919118
 C          1.4114571159       -2.7268890631       -3.1666088791
 C          2.1061448598       -2.0860796000        3.4274998912
 C          0.6121292807       -2.9097828270        0.5450562994
 C          0.4241881659        2.5258513870        3.9259454208
 C         -1.9245106949        0.8187530988       -1.4237142706
 C         -0.8481398325        2.1594549324        1.4587478582
 C         -2.0252225867       -0.3620145561       -3.9377912159
 C          3.3506767439        0.7893895342       -0.7147887526
 C          2.8792836919       -0.7855022365       -3.6337091837
 C          2.3501443182       -0.6495239301        3.4065034072
 C         -0.6326159609       -2.1622651418        0.4344935818
 C          1.5292764014        1.6098358246        3.6874122572
 C         -1.8860251595       -0.3259847134       -0.5274802385
 C          0.2139760929        2.4430492385        0.5059311642
 C         -0.8442599384       -1.1956796495       -3.7711689830
 C          2.2854254299        1.7693090829       -0.5521880258
 C          1.5598772200       -1.4017429999       -3.5846805866
 C          3.7559503008        1.2205300988        2.8950431368
 C         -2.9265553623       -1.8173384270        1.0231240279
 C          1.2679152061        3.8658222149       -1.1036670790
 C          0.1434403567       -3.2629822680       -3.0720599381
 C          2.5709323372       -4.2935342925        2.8252057077
 C          1.9740211646       -4.5939185432        1.4262573318
 C         -1.8245933706        3.0067576911        4.2681210008
 C         -2.5608054147        2.7178617028        2.9184776645
 C         -2.9573346842        2.4016203876       -2.7650072931
 C         -3.0862715984        1.6942055165       -4.1548904946
 C          5.3137013995       -0.0301922969       -1.6847430566
 C          5.1458055382       -0.6523862158       -3.0949276351
 Br         5.4262586050        1.9115717640        2.2770826830
 Br        -4.4602503384       -2.3335206521        2.0250719621
 Br         1.2720164030        5.4853229073       -2.1170503729
 Br        -0.0630283327       -5.0718808673       -2.4937834134
 N          2.8916194609       -2.8991667649        2.8651782247
 N          0.7333058361       -3.8940705080        1.3241345152
 N         -0.7127918510        2.1177542327        4.3036464347
 N         -3.0024240087        1.3847022409       -1.7653139163
 N         -1.6551092900        3.0450674071        1.8640251691
 N         -1.9412974170        0.8562048115       -4.2718613732
 N          4.2999969542        0.9631214840       -1.5266210673
 N          3.8892281854       -1.3377246583       -3.1146130304
 H          2.8626428393       -6.9242471834        3.6539785399
 H          4.4969162396       -7.1605520962        3.0263029390
 H          2.7640726996       -7.9616088051        1.4111821647
 H          3.7173548400       -6.6364436724        0.7373406719
 H         -3.7643515573        4.6452305299        5.3695691552
 H         -4.6948900555        3.3686660275        6.1602747461
 H         -5.0709330594        2.2605507613        3.9847073319
 H         -5.6379478926        3.9324724042        3.9181009919
 H         -3.2091948650        5.0043065406       -3.6698499654
 H         -4.9688643170        5.1001957310       -3.5494964666
 H         -4.2364330765        4.4759837986       -5.8540369673
 H         -5.2035868101        3.1978901036       -5.1108998081
 H          8.7668035355        0.1401677141       -1.7762143537
 H          7.7774949362       -1.1558657382       -1.0979038785
 H          8.4221438619       -1.7126556599       -3.4201144547
 H          7.7276709675       -0.1934551093       -3.9947022224
 H          4.2356573417       -4.8960639802        4.0331019014
 H          4.5862253464       -4.7889860232        2.3056305527
 H          1.3030254588       -6.2857844585        0.2923119668
 H          0.9539504715       -6.3787205172        2.0201258058
 H         -3.0292149397        1.6773219868        5.4330728337
 H         -2.2476938025        2.9574099903        6.3657545578
 H         -3.5253162890        4.6227764593        2.8054263993
 H         -4.3215977547        3.3460492574        1.8820265807
 H         -5.0423249616        2.8213390039       -2.5581117957
 H         -3.9894098609        3.8754934574       -1.6108610719
 H         -2.1498812203        3.2714908514       -5.2550359528
 H         -3.2073943751        2.2386048758       -6.2216519298
 H          6.7287277483        1.4567330089       -2.2907282131
 H          6.7907963292        1.0565718219       -0.5725593302
 H          6.1888560991       -2.4659865124       -2.6469969101
 H          6.1425686066       -2.0615623043       -4.3653720615
 H          0.3878190990       -0.1333535322        4.1279599846
 H          0.1655785812       -0.7518797545       -0.9691913414
 H          1.2301869085        0.6009994411        0.9036293472
 H          0.5215414059        0.3754211034       -4.2185578762
 H          4.3493312391       -0.8372741493        2.6684806372
 H         -1.6971325115       -3.4048387335        1.8103502805
 H          2.9116059338        3.1729982206        3.1616967261
 H         -3.9385824584       -0.1697910677        0.0731738606
 H         -0.5642295308        4.3472585634       -0.0725870471
 H         -1.9704650482       -2.9542327402       -3.2521614728
 H          3.1056469947        3.1432143813       -1.9688649225
 H          2.2915740932       -3.3006577098       -2.9242689371
 H          1.1849103350       -2.4077057943        3.9326462957
 H          1.4344867310       -2.5596892629       -0.0994813463
 H          0.6230713564        3.5851081077        3.7060708960
 H         -0.9436361014        1.1554205712       -1.7930885813
 H         -0.8912100709        1.1196112813        1.8150422025
 H         -2.9874321642       -0.8395951823       -3.7012506836
 H          3.2704528907       -0.1079604420       -0.0805017756
 H          2.9286977722        0.1998368325       -4.1174181928
 H          1.8053784997       -4.5585792213        3.5739285847
 H          2.7005041247       -4.2556351925        0.6661961134
 H         -1.5111050672        4.0651660062        4.2521214432
 H         -2.8129194123        1.6444691762        2.9190479498
 H         -1.9876825757        2.9269956473       -2.7674010643
 H         -4.0265788813        1.1160918373       -4.1426642098
 H          5.2146615000       -0.8402774348       -0.9406331002
 H          5.1713196791        0.1743921508       -3.8248272286
 C         -6.8370205810        0.9915816926        1.0222052287
 C         -7.8425809635        0.2794530575        1.9280440710
 O         -6.1947702960        0.0624414974        0.1651287208
 C         -7.1472727837       -0.6479596584       -0.6066004175
 C         -8.1544587888       -1.3563266632        0.3012298323
 O         -8.7985654719       -0.4214369716        1.1499766810
 H         -6.0491572135        1.4618922785        1.6095349002
 H         -7.3120693862       -0.4279608503        2.5811654781
 H         -7.6761008942        0.0522251320       -1.2695143944
 H         -7.6333120364       -2.1078693250        0.9110466522
 H         -8.4024860917        0.9969534198        2.5278456241
 H         -6.5861352033       -1.3692811838       -1.2011563722
 H         -8.9412133417       -1.8304534664       -0.2855977773
 H         -7.3552446716        1.7492506440        0.4171015935