142
-211.12815593
 C          4.4501369791       -6.3742045270        3.0468570835
 C          3.8941891806       -6.7594913480        1.6797922066
 C         -4.2591109266        2.8713276177        5.2695367870
 C         -4.9301933360        2.4787750954        3.9570525745
 C         -4.4339642457        3.5422263667       -3.8186871479
 C         -4.4851720007        2.7911260457       -5.1453093591
 C          7.9755837003        0.2577804420       -1.8711390431
 C          7.8815626224       -0.3915614646       -3.2480298372
 C          4.5715717335       -4.8590483260        3.1619327453
 C          2.5411753260       -6.0969411933        1.4506185747
 C         -2.9021769722        2.1890539327        5.3999509317
 C         -4.0374499322        2.8352870741        2.7736730111
 C         -4.2813939510        2.5646159309       -2.6589268997
 C         -3.2334858000        1.9394018332       -5.3251846858
 C          6.7477821377        1.1204799399       -1.6058940048
 C          6.6101216152       -1.2256022391       -3.3551326262
 C          1.4938941521        0.1887060120        3.8134556073
 C         -0.3850030030       -1.3859181103       -0.3647540472
 C          1.2457404922        1.3779475853        0.3192314089
 C          0.6909159880       -0.9616109398       -3.8838850617
 C          3.7494684513        0.0601319040        2.9785099175
 C         -1.2607727212       -2.8941688864        1.2946970115
 C          2.6649683479        2.2064117580        3.2144519387
 C         -2.7011778107       -1.2391830442        0.2790347006
 C         -0.0152922736        3.3448385986       -0.2650301078
 C         -0.4929063234       -2.9742452080       -3.2924382035
 C          2.1074862408        2.9005986399       -1.3341321678
 C          1.9143127084       -2.8849744650       -3.1056742675
 C          2.5225788525       -2.0287299585        3.5061509143
 C          1.1210773826       -3.0652611358        0.6317191932
 C          0.3031863784        2.3560485450        3.9015915381
 C         -1.8052849346        0.3130688031       -1.4341628840
 C         -0.9014756707        1.7827327997        1.4456213597
 C         -1.7837529042       -0.9709615645       -3.9173707271
 C          3.4217604913        0.8873305225       -0.7311107202
 C          3.1357545218       -0.7915503868       -3.6246431801
 C          2.5972956563       -0.5746651353        3.4501427820
 C         -0.1914693966       -2.4441348508        0.5180168489
 C          1.5118810734        1.5763952323        3.6806234426
 C         -1.6322685456       -0.7790911433       -0.4890101350
 C          0.1149219919        2.1743632893        0.4815131298
 C         -0.5109124440       -1.6527602259       -3.7367796311
 C          2.2466206060        1.7343339809       -0.5795102351
 C          1.9009482959       -1.5620821145       -3.5558969308
 C          3.7653289601        1.4366392223        2.8808712640
 C         -2.4925468728       -2.2826396674        1.1619205277
 C          0.9798808892        3.6808290217       -1.1642594079
 C          0.7205297161       -3.5681525434       -2.9935932410
 C          3.2193590298       -4.1823199848        2.9412287003
 C          2.6514796260       -4.5742570091        1.5528131789
 C         -1.9906894389        2.5566312261        4.2319285162
 C         -2.6793942722        2.1500347044        2.8874208601
 C         -3.0255823708        1.7143300936       -2.8213233693
 C         -3.0810008262        0.9414083083       -4.1801986472
 C          5.4648758411        0.2919737329       -1.6990155256
 C          5.3697004559       -0.3711387613       -3.0972594651
 Br         5.3375210656        2.3073116852        2.2321098922
 Br        -3.9519157238       -2.8871443128        2.2377365855
 Br         0.7823704605        5.2680784274       -2.2099619029
 Br         0.7353182936       -5.3747319865       -2.3711614456
 N          3.3878080603       -2.7607965030        2.9495867040
 N          1.3467245996       -4.0044445778        1.4425726946
 N         -0.7755840284        1.8170001142        4.2859621486
 N         -2.9444352154        0.7411995580       -1.7793112202
 N         -1.8191630510        2.5658339073        1.8260082882
 N         -1.8456969129        0.2405781188       -4.2786029981
 N          4.3388225400        1.1580712840       -1.5533994503
 N          4.2060396890       -1.2047557731       -3.0973003851
 H          3.7839824331       -6.7458766857        3.8286305448
 H          5.4306910798       -6.8297340259        3.1949229968
 H          3.7814408656       -7.8426014552        1.6119330569
 H          4.5904351547       -6.4436785075        0.8998015853
 H         -4.1247986186        3.9550278413        5.3004710803
 H         -4.8909650698        2.5856621936        6.1119785866
 H         -5.1235302628        1.4037341390        3.9548952015
 H         -5.8866920520        2.9943865530        3.8595445177
 H         -3.5883332554        4.2336489674       -3.8241800000
 H         -5.3463154085        4.1254475941       -3.6841336641
 H         -4.5639877441        3.4986224321       -5.9721937648
 H         -5.3682197412        2.1483257127       -5.1660259948
 H          8.8717642372        0.8769131766       -1.8082991658
 H          8.0474309902       -0.5176604277       -1.1053579789
 H          8.7499978702       -1.0290806485       -3.4221212822
 H          7.8732007070        0.3844697113       -4.0166356581
 H          4.9445172373       -4.5796060995        4.1494506395
 H          5.2727229790       -4.4787179385        2.4171517873
 H          2.1515370393       -6.3527419613        0.4634609729
 H          1.8210784051       -6.4392507061        2.1954352134
 H         -3.0233999809        1.1047439116        5.4156790000
 H         -2.4131403632        2.4875754599        6.3294698589
 H         -3.8778494274        3.9137185545        2.7287147727
 H         -4.5037081666        2.5231364765        1.8376534930
 H         -5.1445618741        1.8991479048       -2.6073471346
 H         -4.2120297516        3.1047707763       -1.7130793431
 H         -2.3452905619        2.5727111014       -5.3521305393
 H         -3.2815543807        1.3852275482       -6.2648317937
 H          6.6878989495        1.9287147696       -2.3363595348
 H          6.8019599191        1.5686543984       -0.6119890293
 H          6.6276781590       -2.0361644535       -2.6246026685
 H          6.5272456325       -1.6697606589       -4.3492207295
 H          0.5910809914       -0.2788283671        4.1747576319
 H          0.4385777315       -1.0341131937       -0.9698059721
 H          1.3487352791        0.4771469680        0.9075291616
 H          0.6544693542        0.0605651998       -4.2274743675
 H          4.6003708640       -0.5401778618        2.6989667652
 H         -1.1004602774       -3.7124460707        1.9780066339
 H          2.6938722763        3.2800895830        3.1050654126
 H         -3.6642031701       -0.7666472098        0.1715765101
 H         -0.8916375746        3.9577700631       -0.1285869381
 H         -1.4154603153       -3.5219960602       -3.1723416829
 H          2.8865068863        3.1677210165       -2.0298205537
 H          2.8576038603       -3.3420425919       -2.8530065457
 H          1.6496835630       -2.4417152929        4.0304274735
 H          1.8973971082       -2.6604428332       -0.0369631926
 H          0.3708158779        3.4272251686        3.6611292720
 H         -0.8729678952        0.7361152741       -1.8360150276
 H         -0.8090173827        0.7567019985        1.8310588055
 H         -2.6815768087       -1.5545243993       -3.6658716471
 H          3.4540574243       -0.0000702694       -0.0789582802
 H          3.0642502681        0.1812131002       -4.1305208230
 H          2.4895513887       -4.5111896931        3.7004052823
 H          3.3374229461       -4.1832344547        0.7806174415
 H         -1.8149644936        3.6459530876        4.1968796849
 H         -2.7935495605        1.0539532279        2.9113851904
 H         -2.1239990964        2.3474991561       -2.8560847901
 H         -3.9463774451        0.2573428950       -4.1361498373
 H          5.4666696334       -0.5106026231       -0.9403228598
 H          5.2915317229        0.4392495686       -3.8417074924
 C         -8.8586429625        1.5338582753        0.7894957850
 C         -8.5346810289        2.9652934999        0.3571544247
 O        -10.1823183208        1.4544854038        1.2913841843
 C        -11.1124401911        1.9025628640        0.3201342730
 C        -10.7879780308        3.3329944545       -0.1160444343
 O         -9.4637968497        3.4134996188       -0.6158321475
 H         -8.2054788432        1.2113795569        1.6001761358
 H         -8.5697864521        3.6305469195        1.2318735767
 H        -11.0813928778        1.2355816276       -0.5536999916
 H        -10.8991124632        4.0128145682        0.7411165000
 H         -7.5530803438        3.0197897629       -0.1125303568
 H        -12.0941838011        1.8518889023        0.7911038723
 H        -11.4410552060        3.6504053299       -0.9290742781
 H         -8.7505473124        0.8566437718       -0.0701013597