142
-211.12723283
 C          0.0928708710       -4.0413986736       -5.3197503274
 C         -0.7230225216       -5.1475037397       -4.6585343635
 C          1.0907143578        7.5550059025        3.0840576850
 C          2.1142531466        8.1629165952        2.1303826426
 C         -6.4383257693        2.6135358642        3.8323589053
 C         -5.7131022465        3.7800492670        3.1691265616
 C          7.0719291337       -3.6250607104        0.7015913305
 C          6.0375209948       -4.3163268453        1.5840141851
 C         -0.3806273944       -2.6741828887       -4.8412814182
 C         -0.6175739304       -5.0482204620       -3.1410589535
 C          0.1229643058        6.6544488597        2.3245905105
 C          2.8733230013        7.0654309008        1.3933846954
 C         -5.8711570738        1.2860002432        3.3424414105
 C         -4.2161837249        3.7041588837        3.4479955075
 C          6.3862275850       -2.6775401435       -0.2757951938
 C          5.2046647548       -3.2846128993        2.3353444593
 C         -0.0226595804        1.5222899211       -0.7915894549
 C         -2.3530209835       -1.9258888504        1.6142259941
 C          3.5716225511        2.5358424965       -0.7788674008
 C          0.5875571709        0.3013786683        2.2549711337
 C         -2.0068745404        1.1423380792       -2.1009010545
 C         -0.4489527199       -3.3997279822        1.5738235136
 C         -1.7902099044        3.1584659594       -0.7845346839
 C         -1.0409133045       -2.2392653061        3.6094640209
 C          2.2854524709        2.8308868013       -2.7939209116
 C          0.5183954948        2.0026530247        3.9584423545
 C          3.4557549340        0.7544329577       -2.3952743293
 C          2.5353667325        0.7166150586        3.6075626288
 C         -0.1901717050       -0.5419619892       -2.1335919669
 C         -1.7412974671       -3.0136670764       -0.5079217881
 C          0.2512158658        3.5590197059        0.5626853548
 C         -2.8795798008       -0.5953761619        3.6301226169
 C          2.2486201439        4.6028418018       -1.0789384207
 C         -1.4931439059        1.5755247224        2.5746333218
 C          4.7150143399        0.4102556828       -0.2870801415
 C          2.6169105146       -1.0465127223        1.8679530069
 C         -0.7459302248        0.7232733750       -1.6723255552
 C         -1.5221016244       -2.7933864811        0.9153097839
 C         -0.5361039780        2.7371955462       -0.3439179666
 C         -2.1091363661       -1.6284838836        2.9541375331
 C          2.7410551096        3.3255106079       -1.5726872700
 C         -0.1104798277        1.2980863488        2.9324506311
 C          3.9191799715        1.2492992224       -1.1732563206
 C          1.9052562728        0.0009953181        2.5878099507
 C         -2.5049698140        2.3486558483       -1.6476013878
 C         -0.2363917420       -3.1205385308        2.9086048770
 C          2.6589384957        1.5573617896       -3.1858907362
 C          1.8315659932        1.7035234398        4.2707743869
 C         -0.2699788494       -2.5561636598       -3.3198322128
 C         -1.0945196222       -3.6835145172       -2.6459521841
 C          0.8694744530        5.5438516018        1.5922763964
 C          1.9180750830        6.1669734407        0.6120249549
 C         -4.3751967148        1.1878457176        3.6301400919
 C         -3.6339699946        2.3857943889        2.9483633111
 C          5.5526828982       -1.6329323219        0.4652934288
 C          4.5016098076       -2.3344251166        1.3638954286
 Br        -4.2394230288        2.9113709297       -2.2187728900
 Br         1.2359013433       -3.9404971577        3.8097291320
 Br         2.0191533124        0.8809822715       -4.8546458694
 Br         2.7013184931        2.6972073632        5.6519077365
 N         -0.8269839940       -1.3072186684       -2.9079135498
 N         -0.8801833152       -3.5838721587       -1.2342399980
 N         -0.0361735049        4.7660483119        0.8093317063
 N         -3.8259789300        0.0112297078        3.0479822417
 N          2.6154314636        5.0657760161        0.0405890989
 N         -2.2528884595        2.2855147702        3.2952399780
 N          4.8421561723       -0.8305012791       -0.4833417343
 N          3.8239389341       -1.3217540517        2.1089800616
 H          1.1488931862       -4.1677461687       -5.0715905618
 H         -0.0072638276       -4.0984757094       -6.4046850885
 H         -0.3640405076       -6.1250149230       -4.9848542451
 H         -1.7696236348       -5.0546282455       -4.9568527885
 H          1.6077815468        6.9694884764        3.8476244291
 H          0.5321752771        8.3462137983        3.5867058050
 H          1.6034962496        8.8009393807        1.4054757900
 H          2.8207465675        8.7819955966        2.6856170207
 H         -6.3220276101        2.6805626786        4.9165522900
 H         -7.5044138377        2.6582035633        3.6041865777
 H         -6.1055135488        4.7262522480        3.5449755594
 H         -5.8832520321        3.7487265113        2.0905408941
 H          7.6464517541       -4.3675491660        0.1451259149
 H          7.7667065410       -3.0611791109        1.3280585927
 H          6.5339942693       -4.9710887733        2.3018161219
 H          5.3813104455       -4.9315380025        0.9644999034
 H          0.2162591291       -1.8814252183       -5.2961412573
 H         -1.4226971885       -2.5148745918       -5.1226771604
 H         -1.2221895179       -5.8226270919       -2.6644651424
 H          0.4174582689       -5.1868729439       -2.8243421712
 H         -0.4404132950        7.2340844444        1.5915463265
 H         -0.5894186130        6.1964097625        3.0130447307
 H          3.4266702524        6.4469359218        2.1019641328
 H          3.5901373094        7.5010334839        0.6941970636
 H         -6.0224555459        1.1836425191        2.2665990662
 H         -6.3745913154        0.4514778569        3.8349141424
 H         -4.0242261396        3.7832778746        4.5192668441
 H         -3.6946437709        4.5233280255        2.9498820544
 H          5.7256441393       -3.2351146013       -0.9419470693
 H          7.1263320805       -2.1608020623       -0.8903263082
 H          5.8409708998       -2.6920224142        2.9944762980
 H          4.4484761823       -3.7768346016        2.9499572732
 H          0.9542769810        1.2039366551       -0.4561418342
 H         -3.1838147344       -1.4403233449        1.1262249467
 H          3.9116538732        2.9379494235        0.1628825231
 H          0.0935280250       -0.2500711123        1.4674944514
 H         -2.5612278574        0.5154867589       -2.7805535173
 H          0.1915437854       -4.0700208650        1.0232990009
 H         -2.1766391200        4.1027791488       -0.4363836510
 H         -0.8377629257       -2.0175729085        4.6463683258
 H          1.6410399591        3.4302045566       -3.4193356665
 H         -0.0324399474        2.7685704057        4.4802435726
 H          3.7294848489       -0.2452617627       -2.6924225483
 H          3.5572081996        0.4796589956        3.8563818211
 H          0.8192153376       -0.7809555877       -1.7627169147
 H         -2.6858712383       -2.6222355473       -0.9104176440
 H          1.1210014873        3.0586551214        1.0132068769
 H         -2.5547481459       -0.3385741909        4.6489687775
 H          1.5024120633        5.1089871991       -1.7086336725
 H         -1.8351571039        1.1170927332        1.6351662453
 H          5.1665259953        0.9206659366        0.5749077607
 H          2.0298198189       -1.5797933749        1.1033615385
 H          0.7809624597       -2.6636763061       -2.9983266331
 H         -2.1530358503       -3.5203331870       -2.9107238328
 H          1.4349718799        4.9169364161        2.3011612788
 H          1.3599298329        6.7465880901       -0.1436058370
 H         -4.1764389794        1.2508284114        4.7140890148
 H         -3.7887477599        2.2745896687        1.8625822054
 H          6.1905745226       -1.0184848953        1.1230349410
 H          3.8109034189       -2.8930601568        0.7078922585
 C         -4.5379719988       -8.0691681733       -7.0868664993
 C         -5.4294465030       -6.9457663485       -7.6202378706
 O         -5.3207400876       -9.1890700620       -6.7074937428
 C         -6.0994415315       -9.6476587383       -7.7998846619
 C         -6.9903888242       -8.5243069763       -8.3343409847
 O         -6.2078093865       -7.4043241452       -8.7129264862
 H         -4.0050761556       -7.7532139757       -6.1901344797
 H         -6.0942707664       -6.5917068491       -6.8190207034
 H         -5.4352612280      -10.0028621242       -8.6010052457
 H         -7.7096847727       -8.2245618292       -7.5584329266
 H         -4.8300052912       -6.1179839524       -7.9994908151
 H         -6.6998380807      -10.4747974960       -7.4207685117
 H         -7.5224079911       -8.8419942233       -9.2311495572
 H         -3.8200833069       -8.3688738936       -7.8638866569