142
-211.12712247
 C         -4.1930095777       -5.4929006362        6.4695700837
 C         -5.2056071183       -5.9728347987        5.4348011881
 C          5.1238609192        2.4133565261        6.6036150993
 C          4.3502724814        3.7243727219        6.6827973251
 C         -2.6608724045       -5.0813464881       -6.8088818079
 C         -1.1703251352       -5.3984436085       -6.8490003099
 C          3.6362371383        6.9917559600       -5.4187275896
 C          3.4246638631        5.9166018305       -6.4798426231
 C         -2.8530186235       -5.1967355846        5.8060609842
 C         -5.3692173078       -4.9353851074        4.3300703240
 C          4.2156567143        1.2979267117        6.1021659040
 C          3.7749758339        4.0771132348        5.3170396947
 C         -3.0807221970       -4.7092817795       -5.3924562837
 C         -0.3657917016       -4.2051882577       -6.3492426048
 C          2.6706247423        6.7905151574       -4.2564836728
 C          3.5926815017        4.5282066025       -5.8732631633
 C          0.9539045108       -1.5767242003        3.7900390062
 C         -3.4900757339       -2.9457698438       -0.8082061023
 C          1.6990772511        4.2293091369        0.8781792870
 C          1.4477281040       -0.2870840559       -3.9340786300
 C          0.5806885770       -3.5807942483        2.5071946059
 C         -4.6304629941       -1.5477673531        0.7893881100
 C          2.5881562355       -2.2806359476        2.1656908862
 C         -4.3382804209       -0.7962759259       -1.4871243660
 C         -0.5643448047        4.2985543559        1.7004151265
 C          2.6289957919       -1.6502170668       -2.3387458004
 C         -0.0866258000        4.9125878067       -0.5861822363
 C          3.2509169631        0.6628775313       -2.6543434134
 C         -1.1166317500       -2.8801844865        4.1580703705
 C         -3.7963563446       -3.7648911456        1.5016317453
 C          3.0245677778       -0.2408085301        3.4677919990
 C         -3.2104184908       -2.2081399966       -3.1616602363
 C          1.2325731699        3.5918996319        3.2292584208
 C          0.8220664438       -2.6743091920       -3.6517986772
 C          2.2305485958        4.8624610229       -1.4505471199
 C          2.0309016083        2.0990781423       -4.2433712782
 C          0.1584425335       -2.6747571463        3.4831092009
 C         -3.9661635804       -2.7384783667        0.4817674247
 C          2.1710352912       -1.3754043543        3.1412164767
 C         -3.6731467363       -1.9817061170       -1.7986768303
 C          0.7881834622        4.0416429230        1.9172677330
 C          1.6366833012       -1.5174833151       -3.3082451570
 C          1.2721557631        4.6647806796       -0.3716357188
 C          2.2476422273        0.8034459267       -3.6147405873
 C          1.7804777766       -3.3618322613        1.8643716105
 C         -4.8042477241       -0.6006197242       -0.1981509658
 C         -0.9756879031        4.7263338075        0.4513763405
 C          3.4111972817       -0.5543226561       -2.0309434780
 C         -3.0109134369       -4.1424579091        4.7047194244
 C         -4.0276587410       -4.6400976530        3.6553613027
 C          3.6276827534        1.6338467264        4.7241825007
 C          2.8570518243        2.9650643911        4.7917428613
 C         -2.2818341148       -3.5085795048       -4.8701825340
 C         -0.7727082078       -3.8162711889       -4.9220722514
 C          2.8427421366        5.4002814217       -3.6398025458
 C          2.6111250851        4.3178537973       -4.7148916950
 Br         2.3372170297       -4.5815680762        0.5050762833
 Br        -5.7205681529        1.0294429793        0.2184359648
 Br        -2.8331265486        5.0654160340        0.1524163870
 Br         4.7418289448       -0.7190323885       -0.6794220563
 N         -1.7546451755       -3.9628012988        4.0448733867
 N         -4.2111304812       -3.6062405768        2.6830172708
 N          2.7196251906        0.5822429747        4.3754530904
 N         -2.6633023231       -3.2907739325       -3.5083397012
 N          2.4443046097        3.3351379953        3.4718517652
 N         -0.0454611869       -2.6340856235       -4.5682232475
 N          1.8698669220        5.2222016640       -2.6054512009
 N          2.8576454633        3.0435371407       -4.1122032516
 H         -4.5673019355       -4.5874393327        6.9524739450
 H         -4.0553078955       -6.2539578235        7.2397328171
 H         -6.1709587704       -6.1517832119        5.9114250058
 H         -4.8636672895       -6.9151352350        5.0007919015
 H          5.9697363055        2.5288827437        5.9226058252
 H          5.5150251733        2.1470856151        7.5871338428
 H          3.5386890908        3.6263474431        7.4072184162
 H          5.0068834823        4.5292041688        7.0178640855
 H         -2.8754061600       -4.2498921739       -7.4839835563
 H         -3.2383259427       -5.9452630238       -7.1426487387
 H         -0.8643928219       -5.6402564748       -7.8684001145
 H         -0.9645889768       -6.2665096839       -6.2189953510
 H          3.4811083660        7.9809300224       -5.8530328689
 H          4.6634496170        6.9422157832       -5.0504353584
 H          4.1422258902        6.0461287711       -7.2920609928
 H          2.4200996339        6.0108993152       -6.8983124970
 H         -2.1346667286       -4.8287484013        6.5421009848
 H         -2.4429281452       -6.1044005546        5.3595948209
 H         -6.0717210501       -5.2907457814        3.5733866702
 H         -5.7606765528       -4.0030289435        4.7405135846
 H          3.3895140336        1.1433942630        6.7988593027
 H          4.7692250549        0.3597627564        6.0230671036
 H          4.5809335939        4.2220671765        4.5955146057
 H          3.2012973525        5.0049952985        5.3714302953
 H         -2.9125971074       -5.5498556880       -4.7169700240
 H         -4.1437165402       -4.4601560608       -5.3613556978
 H         -0.5281062596       -3.3426950601       -6.9983331594
 H          0.7021438539       -4.4340077442       -6.3548851559
 H          1.6391540291        6.8905421603       -4.5985660448
 H          2.8427334031        7.5416473786       -3.4827757678
 H          4.6083360672        4.4007985236       -5.4942238110
 H          3.4149618986        3.7574004351       -6.6266173526
 H          0.6513140167       -0.8655033233        4.5420345124
 H         -2.9774064354       -3.8572290465       -1.0726036118
 H          2.7419179159        4.0299440490        1.0718052988
 H          0.6686350255       -0.2054852357       -4.6758426385
 H         -0.0426201948       -4.4301232126        2.2791920044
 H         -4.9988449452       -1.3999192717        1.7914880305
 H          3.5298599490       -2.1370768997        1.6577339194
 H         -4.4932248832       -0.0411266277       -2.2426746061
 H         -1.2824919242        4.1548953612        2.4925925756
 H          2.7792261014       -2.5953404421       -1.8389716945
 H         -0.4084184368        5.2483480800       -1.5589550930
 H          3.8671615582        1.5143687997       -2.4142220539
 H         -1.4805652192       -2.0381817983        4.7640186077
 H         -3.2958769298       -4.6864524825        1.1721495438
 H          3.9534684983       -0.1597771266        2.8863569170
 H         -3.3892815272       -1.3867542773       -3.8716042917
 H          0.4482479471        3.5043263118        3.9958335688
 H          1.0256146644       -3.5894068776       -3.0774294500
 H          3.2839514313        4.6818375775       -1.1923838586
 H          1.1033772116        2.2021336525       -4.8250548013
 H         -3.3836888996       -3.1992229324        5.1408814648
 H         -3.6168221072       -5.5585183256        3.1999667115
 H          4.4409461270        1.7344556190        3.9853205768
 H          1.9953626411        2.8345305167        5.4701512342
 H         -2.4753007861       -2.6209731643       -5.4983875139
 H         -0.5624702914       -4.6501815290       -4.2298416585
 H          3.8708461735        5.2772277487       -3.2554014030
 H          1.5748299074        4.4008592669       -5.0863942746
 C          1.0527249226        0.6555389916        0.3494445317
 C         -0.0778221493        0.6668986468        1.3754591369
 O          0.5603384732        0.3102154398       -0.9335560890
 C         -0.4593224150        1.2110272483       -1.3315260383
 C         -1.5913122325        1.2175324104       -0.3062061827
 O         -1.1017236980        1.5585831768        0.9786499307
 H          1.7962169166       -0.0965261941        0.6099119140
 H         -0.4930583227       -0.3466458737        1.4770752044
 H         -0.0369114608        2.2212577799       -1.4294879596
 H         -2.0506056096        0.2194375431       -0.2692450964
 H          0.2871603931        1.0177698348        2.3405178455
 H         -0.8110323367        0.8583462316       -2.3002840492
 H         -2.3439881087        1.9645747992       -0.5561679172
 H          1.5209803078        1.6489432027        0.3106477500