142
-211.12756561
 C          2.3651301338       -6.9142567609        2.1211443973
 C          1.9603154854       -6.9795759292        0.6520807558
 C         -4.3005078251        3.8190114855        4.6680533167
 C         -4.8119405589        3.7789201048        3.2315962922
 C         -2.8508897363        5.7063473491       -4.0152515335
 C         -2.8529194995        5.1851802611       -5.4487229779
 C          8.0714472809       -0.6881501437       -1.2268456716
 C          8.0398744216       -1.1190683745       -2.6896235010
 C          2.7977495791       -5.4997108722        2.4890637888
 C          0.8396650721       -5.9875599096        0.3655734844
 C         -3.1665892671        2.8179412717        4.8580220263
 C         -3.6780488521        4.0668140589        2.2539937468
 C         -3.1232847489        4.5705140786       -3.0355349675
 C         -1.8166653122        4.0795041368       -5.6150166711
 C          7.0394825166        0.4037988460       -0.9721837865
 C          6.6453058378       -1.6031022704       -3.0696991481
 C          0.8657585606        0.0249798700        3.5441743725
 C         -0.6473734242       -0.5020382703       -0.9884382589
 C          1.4888566759        1.7209319067        0.2904042386
 C          1.0771405185        0.1459397970       -4.2238971037
 C          3.1381291526       -0.5512873964        2.9919534222
 C         -2.1004682098       -1.9826600272        0.2325706981
 C          2.5447109932        1.7486771815        3.4357273816
 C         -2.9557794569        0.0979813645       -0.6546292933
 C          0.8051663372        3.9964535860       -0.1031825910
 C         -0.5954884959       -1.5841384274       -4.1211291495
 C          2.9237465609        3.1999820713       -0.9539056958
 C          1.7148662366       -2.1013759953       -3.6377522649
 C          1.4021823534       -2.3213770329        3.0173502274
 C          0.2696477893       -2.6185991061       -0.1172376387
 C          0.1984227904        2.3895989424        3.8347589960
 C         -1.4617641435        1.6228215117       -1.9181060182
 C         -0.6731230346        2.4771448848        1.1843658399
 C         -1.3024557328        0.7366283214       -4.5559592626
 C          3.6458953440        0.8647932326       -0.5429461129
 C          3.4312423705       -0.3123384798       -3.6591774965
 C          1.8114423812       -0.9354805697        3.2046210190
 C         -0.8405267649       -1.6924179105       -0.2941250574
 C          1.2190011230        1.3700048084        3.6430618871
 C         -1.6954809044        0.3967477488       -1.1710262870
 C          0.5500361564        2.7384937511        0.4415143217
 C         -0.2547661044       -0.2497156034       -4.3381380162
 C          2.6772633047        1.9429390007       -0.3987663494
 C          2.0612294003       -0.7659162196       -3.8602756082
 C          3.4809955384        0.7791579399        3.1224495452
 C         -3.1314519187       -1.0825382517        0.0434891359
 C          1.9834085438        4.2001633961       -0.7976018669
 C          0.3976095221       -2.4864731270       -3.7830635306
 C          1.6805956500       -4.4941395249        2.2130564861
 C          1.2641570470       -4.5612557977        0.7210176399
 C         -2.0148518283        3.1047622887        3.8980705046
 C         -2.5412877857        3.0643645592        2.4252490912
 C         -2.0851369688        3.4627711332       -3.1820826234
 C         -2.0847371729        2.9259137044       -4.6518759038
 C          5.6331468666       -0.0737917821       -1.3393801508
 C          5.6009832165       -0.5145382133       -2.8257102601
 Br         5.2931025050        1.3082034015        2.8264389844
 Br        -4.8522110615       -1.4742633232        0.7760974450
 Br         2.3134631800        5.9151886532       -1.5729919771
 Br        -0.0800435829       -4.3105261715       -3.4733099466
 N          2.1586632211       -3.1687765733        2.4660389152
 N          0.1493949795       -3.6867281419        0.5423679062
 N         -1.0219919367        2.0882221425        3.9826469131
 N         -2.4020493247        2.3629413720       -2.3285218838
 N         -1.4456695840        3.4001718017        1.5733974831
 N         -1.0368683341        1.9643433167       -4.7123088102
 N          4.7181297707        1.0123564349       -1.1903031091
 N          4.2949555031       -1.0371963490       -3.0908488331
 H          1.5189982506       -7.2096841118        2.7455034445
 H          3.1855625863       -7.6071530260        2.3153158816
 H          1.6240417700       -7.9863681381        0.3996267222
 H          2.8228261526       -6.7451261578        0.0244198803
 H         -3.9401548080        4.8241060656        4.8989797939
 H         -5.1108362277        3.5839654780        5.3599466770
 H         -5.2300098030        2.7918222369        3.0217507414
 H         -5.6045088202        4.5165497904        3.0963302139
 H         -1.8793775521        6.1529595026       -3.7917856649
 H         -3.6122968859        6.4789218003       -3.8972129203
 H         -2.6301177793        5.9976796182       -6.1421221809
 H         -3.8434017625        4.7946021422       -5.6933179522
 H          9.0631326430       -0.3149131226       -0.9666946679
 H          7.8565659085       -1.5474461065       -0.5878638683
 H          8.7614333306       -1.9197730165       -2.8603616426
 H          8.3169928087       -0.2742532206       -3.3240892530
 H          3.0631663669       -5.4442786238        3.5468198065
 H          3.6736733428       -5.2093265121        1.9064802338
 H          0.5637722447       -6.0156123563       -0.6902829077
 H         -0.0460689484       -6.2374360338        0.9516260886
 H         -3.5232140387        1.8028751124        4.6757946845
 H         -2.7855839783        2.8631098842        5.8803436035
 H         -3.2816917573        5.0704954641        2.4158108404
 H         -4.0386943340        4.0074308658        1.2255633648
 H         -4.1120809332        4.1442735496       -3.2124059847
 H         -3.0925959530        4.9388247451       -2.0085944551
 H         -0.8154362955        4.4667282656       -5.4191458056
 H         -1.8345577835        3.6907612748       -6.6352770324
 H          7.2683068740        1.2876636817       -1.5695730239
 H          7.0440294130        0.6975797830        0.0791959089
 H          6.3748281519       -2.4785299986       -2.4768736394
 H          6.6134947063       -1.8870168059       -4.1236176858
 H         -0.1658332940       -0.2461175971        3.7070329896
 H          0.3250859616       -0.2726742419       -1.4006037753
 H          1.2926523715        0.7503049725        0.7234690931
 H          1.3186489424        1.1836367749       -4.3943477488
 H          3.8646866735       -1.3031099011        2.7283894723
 H         -2.2403515687       -2.9059555454        0.7712389036
 H          2.8334748880        2.7864571813        3.5078823102
 H         -3.7626277203        0.7968070448       -0.8063755102
 H          0.0750880777        4.7795201678        0.0237657198
 H         -1.6226892203       -1.9056657202       -4.2050929261
 H          3.8455664208        3.3620162660       -1.4888809321
 H          2.4848170400       -2.8014100344       -3.3553919551
 H          0.3862034110       -2.5686487297        3.3550201539
 H          1.2153449318       -2.3234176245       -0.5991073352
 H          0.5443784415        3.4325792558        3.7878307166
 H         -0.4046911911        1.8578854863       -2.1109287368
 H         -0.8752427887        1.4164129495        1.3939460320
 H         -2.3347758038        0.3587847662       -4.5209986839
 H          3.3786794936       -0.0825642104       -0.0481004838
 H          3.6512382005        0.7077975489       -4.0030901551
 H          0.7865447728       -4.7277362708        2.8156504943
 H          2.1313286918       -4.2516677218        0.1113302851
 H         -1.5977296009        4.1118938746        4.0720922662
 H         -2.8946350980        2.0356465276        2.2454196470
 H         -1.0705701116        3.8477247401       -2.9874568909
 H         -3.0756071362        2.4770450142       -4.8395860108
 H          5.3449997381       -0.9417785184       -0.7203730767
 H          5.8156086126        0.3775240320       -3.4382072889
 C         -7.8371704792       -4.3571938616        3.9863465057
 C         -9.2150614987       -4.1368813606        3.3596880539
 O         -7.9215584198       -4.3249119710        5.4019152651
 C         -8.8440616309       -5.2943188460        5.8692838547
 C        -10.2222951686       -5.0721248801        5.2430214300
 O        -10.1380467207       -5.1064890780        3.8283780399
 H         -7.1496091425       -3.5611637689        3.7013547023
 H         -9.5780570618       -3.1308719368        3.6143470088
 H         -8.4819510180       -6.3004073119        5.6123307068
 H        -10.6190345967       -4.0980802882        5.5640500393
 H         -9.1721099630       -4.2526975785        2.2768289205
 H         -8.8851186006       -5.1794149727        6.9525898527
 H        -10.9124465222       -5.8666550739        5.5271925786
 H         -7.4385329908       -5.3301130285        3.6648022897