142
-211.12922818
 C          2.8564300372       -6.4439017684        3.5091121714
 C          1.7126308999       -6.8172653708        2.5717095340
 C         -1.9479668802        5.1418406281        6.5579378288
 C         -3.1648891078        4.7929363771        5.7070003114
 C         -5.6682621198        4.6823040711       -1.7445399453
 C         -6.4296947311        3.8180987360       -2.7445996801
 C          5.3405787383       -1.9423298006       -3.6319720495
 C          4.5505941578       -2.7395198321       -4.6648370685
 C          3.3341847032       -5.0247462691        3.2238118333
 C          0.5629589505       -5.8275723806        2.7161951358
 C         -0.8368284813        4.1202065984        6.3438659265
 C         -2.7819901592        4.7227456132        4.2329179386
 C         -5.2817664895        3.8631041576       -0.5181900442
 C         -5.5927903795        2.6106931408       -3.1520972805
 C          4.5526260801       -0.7127048371       -3.1977514928
 C          3.1948672859       -3.1450858333       -4.0983198185
 C          1.9683266870        0.7377176150        3.7809904999
 C         -1.7700722364       -0.7413235322        1.0695024153
 C          0.5598626460        1.4627210042        0.4573180907
 C         -2.1949287065       -1.1365652937       -2.5650209198
 C          3.5895102063       -0.1459521572        2.2342248322
 C         -2.1889019895       -1.7125132979        3.2318017144
 C          3.1908893180        2.2344626644        2.3432896343
 C         -3.5244413531        0.1492026225        2.4582297267
 C         -0.3591405729        3.6205301069       -0.0882722314
 C         -3.4553540882       -2.5928482791       -1.1181168207
 C          0.9715046256        2.4200868832       -1.7124548206
 C         -1.2364323536       -3.2226206852       -1.8362075788
 C          2.2719715405       -1.7039445592        3.6414971736
 C         -0.3879095406       -2.6447931648        1.8051492401
 C          1.4188094137        3.1507165595        3.7891217176
 C         -3.0960739024        1.1488025690        0.2282282121
 C         -0.7822171258        2.6347106311        2.1493119520
 C         -4.3933159701       -0.3922603326       -1.7031632672
 C          1.9341459324        0.2036014539       -1.1543361445
 C          0.1078058169       -1.6945067338       -3.2490265027
 C          2.6288206375       -0.3531325737        3.2277295459
 C         -1.4637127771       -1.6912727138        2.0390877584
 C          2.2286073278        2.0315704969        3.3316205090
 C         -2.7937612692        0.1810387116        1.2711220759
 C         -0.1950678716        2.5753289709        0.8198826032
 C         -3.3518820493       -1.4002102728       -1.8329976907
 C          1.1487791753        1.3779374906       -0.8006291056
 C         -1.1305114745       -2.0306388712       -2.5579459239
 C          3.8598522021        1.1422771174        1.8197276068
 C         -3.2026621175       -0.7923513259        3.4184321184
 C          0.2209666184        3.5186395786       -1.3393809704
 C         -2.3987592072       -3.4857450276       -1.1406222240
 C          2.1916345864       -4.0205479895        3.3707158417
 C          1.0278493733       -4.4003170436        2.4195561250
 C         -0.4302888047        4.0522582536        4.8740775082
 C         -1.6804149068        3.6928500369        4.0046982559
 C         -4.4317804059        2.6597224974       -0.9126912016
 C         -5.2142092210        1.7706690117       -1.9351075972
 C          3.1986703348       -1.1145774213       -2.6098395874
 C          2.3944931689       -1.9181715232       -3.6636905346
 Br         5.1677940243        1.4278406036        0.4566151116
 Br        -4.1847583810       -0.8123212187        5.0573195829
 Br        -0.0340731086        4.9378909046       -2.5927886515
 Br        -2.5431837557       -5.1115902847       -0.1476695410
 N          2.6486126344       -2.7182765317        2.9906929263
 N         -0.0499919321       -3.4975898625        2.6706079042
 N          0.5085751291        3.0043608628        4.6564552364
 N         -4.1495111292        1.8491502818        0.2286034114
 N         -1.2648449670        3.6967730259        2.6383965026
 N         -4.3234471691        0.7217015386       -2.3002777780
 N          2.4557779959        0.0632934720       -2.2939584022
 N          1.1741978081       -2.3390527832       -3.0446621031
 H          2.5152946832       -6.5114320018        4.5445314649
 H          3.6876881422       -7.1394560061        3.3820021514
 H          1.3539272716       -7.8223704266        2.7987194529
 H          2.0694309753       -6.8118871803        1.5394461406
 H         -1.5850767692        6.1354748797        6.2850880942
 H         -2.2234924746        5.1616338472        7.6135537448
 H         -3.5657715448        3.8274560710        6.0238134582
 H         -3.9448071325        5.5434475952        5.8449052784
 H         -4.7653574938        5.0757687686       -2.2169415166
 H         -6.2842735114        5.5288434152       -1.4371624622
 H         -6.6773236197        4.4033546199       -3.6316016903
 H         -7.3643412117        3.4764872706       -2.2937994883
 H          6.2971798779       -1.6279920732       -4.0519553047
 H          5.5446057889       -2.5694792021       -2.7608731444
 H          5.1058455206       -3.6348946734       -4.9503962806
 H          4.4017115033       -2.1305059732       -5.5585942230
 H          4.1346540754       -4.7455570073        3.9120554245
 H          3.7247758088       -4.9550107115        2.2071553197
 H         -0.2483284612       -6.0797573918        2.0307088757
 H          0.1653400588       -5.8546801404        3.7318666190
 H         -1.1687326046        3.1287901686        6.6563840187
 H          0.0423485794        4.3838346002        6.9354195137
 H         -2.4259790559        5.6939001606        3.8853505969
 H         -3.6467168325        4.4437064520        3.6281790840
 H         -6.1743611004        3.5032559470       -0.0039036103
 H         -4.7111415497        4.4743789956        0.1832586718
 H         -4.6757651973        2.9350469052       -3.6466363010
 H         -6.1478525140        1.9803664330       -3.8499382912
 H          4.3747327757       -0.0580510392       -4.0519839175
 H          5.1063345120       -0.1468355317       -2.4459869863
 H          3.3245816808       -3.7961431740       -3.2316642902
 H          2.6170157267       -3.6910011072       -4.8467813712
 H          1.2184059319        0.6026568070        4.5449407749
 H         -1.2138054000       -0.7219109945        0.1430724864
 H          0.6954436408        0.6597927289        1.1679877900
 H         -2.1342901514       -0.2070000812       -3.1094939126
 H          4.0967264018       -0.9981763209        1.8111801041
 H         -1.9435255450       -2.4503450578        3.9785565049
 H          3.4022397946        3.2303439929        1.9839318752
 H         -4.3191611675        0.8631798474        2.6031060726
 H         -0.9398231745        4.4809509596        0.2029509396
 H         -4.3444520539       -2.8102039823       -0.5455463698
 H          1.4285774055        2.3448359272       -2.6859617217
 H         -0.4054016991       -3.9095799567       -1.8369099700
 H          1.6286037864       -1.7775518570        4.5291676414
 H          0.1062875968       -2.5697238657        0.8233757329
 H          1.6084293794        4.1149308812        3.2949920489
 H         -2.3444608806        1.2222550237       -0.5715675907
 H         -0.7681484938        1.6868827908        2.7075184061
 H         -5.2133318042       -0.6358345327       -1.0116253261
 H          2.0419899613       -0.5501171969       -0.3577343203
 H          0.0603994535       -0.8296836503       -3.9248585090
 H          1.7929883991       -4.0293165033        4.3993101129
 H          1.3960613597       -4.3213456475        1.3812774466
 H         -0.0541220580        5.0291078321        4.5234884270
 H         -2.0085117512        2.6904190176        4.3253381263
 H         -3.5072058117        2.9818139875       -1.4192749119
 H         -6.1153535725        1.3926392132       -1.4215240277
 H          3.3381908412       -1.7591407303       -1.7235013269
 H          2.2110113981       -1.2490081173       -4.5208147547
 C          5.8148432890       -0.2059907513       -9.5575143826
 C          5.7331787641       -0.7032559952       -8.1134515586
 O          5.4572950692       -1.2381670002      -10.4615265600
 C          4.1563795705       -1.7229437840      -10.1755250485
 C          4.0742110330       -2.2218953224       -8.7319616220
 O          4.4324751152       -1.1912799735       -7.8260904026
 H          6.8343314615        0.0834179181       -9.8124194790
 H          6.4676470869       -1.5065423783       -7.9583194784
 H          3.4221551094       -0.9189314218      -10.3300180552
 H          4.7516256347       -3.0776793905       -8.5998326719
 H          5.9172860169        0.1100917046       -7.4115352297
 H          3.9714649728       -2.5347494759      -10.8791281615
 H          3.0546458808       -2.5120980821       -8.4775490056
 H          5.1379516596        0.6503002589       -9.6912464852