142
-211.12723516
 C          4.1661808255       -6.4355417110        2.9586986361
 C          3.5873257605       -6.7650897887        1.5866316842
 C         -3.9594616709        3.2918103921        5.3178690853
 C         -4.6445430376        2.9521116702        3.9980507107
 C         -4.0328636677        4.1633625636       -3.7154089435
 C         -4.1365748972        3.4508330516       -5.0601514849
 C          8.0899303292       -0.0756109572       -1.8572772619
 C          7.9391430426       -0.7032008921       -3.2392663951
 C          4.3783590113       -4.9324485961        3.0965583687
 C          2.2759717011       -6.0195446941        1.3701118358
 C         -2.6453384327        2.5298803290        5.4473759500
 C         -3.7261522811        3.2727970853        2.8240933408
 C         -3.9655469133        3.1492023694       -2.5790190364
 C         -2.9543261707        2.5084573196       -5.2564481845
 C          6.9317258728        0.8738082480       -1.5753080371
 C          6.6078908832       -1.4380534178       -3.3451656086
 C          1.6244534207        0.2827989680        3.8402767262
 C         -0.3635283832       -1.1149480132       -0.3658783211
 C          1.4612455999        1.5075616618        0.3688551278
 C          0.7281064169       -0.7143241030       -3.8641736914
 C          3.8677082067        0.0257675526        3.0018035155
 C         -1.3415856989       -2.6070320905        1.2501407551
 C          2.9190316685        2.2318505225        3.2687429848
 C         -2.6723197494       -0.8453728358        0.2632872950
 C          0.3448955182        3.5673361075       -0.1887967553
 C         -0.6068763496       -2.6404188425       -3.3078206502
 C          2.4345859647        2.9892741860       -1.2594346923
 C          1.7995394623       -2.7369239451       -3.1140722644
 C          2.5117937317       -1.9897186437        3.4977229566
 C          1.0334644128       -2.9012665994        0.5998722811
 C          0.5700797059        2.5178979636        3.9569903957
 C         -1.6668011903        0.6938800035       -1.4014997692
 C         -0.6566027029        2.0445774247        1.4942632512
 C         -1.7396050253       -0.5348667393       -3.9031820727
 C          3.5982717257        0.8767307858       -0.6862776192
 C          3.1777587206       -0.7344467104       -3.5990023418
 C          2.6780481356       -0.5425286168        3.4649565856
 C         -0.2403032766       -2.2027759660        0.4932407094
 C          1.7288555476        1.6683408453        3.7268538500
 C         -1.5706507705       -0.4305991406       -0.4838803722
 C          0.3888286281        2.3794566854        0.5399959053
 C         -0.5230820102       -1.3146408404       -3.7312469281
 C          2.4876229578        1.8046954764       -0.5225836744
 C          1.8880038236       -1.4098975098       -3.5431199390
 C          3.9693082966        1.3998687207        2.9234097617
 C         -2.5342134546       -1.9213380684        1.1207061806
 C          1.3651677898        3.8455449825       -1.0797459239
 C          0.5570058741       -3.3291828694       -3.0154242882
 C          3.0686549654       -4.1726049147        2.8896985675
 C          2.4757251250       -4.5077647752        1.4972555224
 C         -1.7072701900        2.8549521363        4.2878765402
 C         -2.4119338089        2.5066411641        2.9349131100
 C         -2.7775035630        2.2095069602       -2.7575520739
 C         -2.8856621463        1.4750553452       -4.1350744639
 C          5.5897782333        0.1446875016       -1.6677127076
 C          5.4377211390       -0.4938311020       -3.0724283579
 Br         5.5924547388        2.1794779203        2.2843597531
 Br        -4.0373632904       -2.4635880729        2.1685785916
 Br         1.2837984065        5.4574277313       -2.1025872835
 Br         0.4327258743       -5.1408920678       -2.4208105630
 N          3.3239346455       -2.7643817612        2.9194436251
 N          1.2058262452       -3.8610251758        1.3995844979
 N         -0.5395207440        2.0420935400        4.3373792192
 N         -2.7719109274        1.2090657501       -1.7387186469
 N         -1.5217111761        2.8814646775        1.8833408728
 N         -1.7076836875        0.6833411936       -4.2459570390
 N          4.5322684369        1.0906561623       -1.5062612171
 N          4.2134583892       -1.2355051062       -3.0787261767
 H          3.4794072373       -6.7785701115        3.7356970787
 H          5.1177115899       -6.9513471614        3.0981525077
 H          3.4100486691       -7.8383072554        1.5016826650
 H          4.3008466607       -6.4789218279        0.8108118348
 H         -3.7620721267        4.3654467167        5.3603887285
 H         -4.6114835733        3.0355329106        6.1543782352
 H         -4.8960764375        1.8892298092        3.9817705991
 H         -5.5715292805        3.5193659970        3.9008689240
 H         -3.1342506307        4.7842465935       -3.7009978453
 H         -4.8954981875        4.8155848161       -3.5704653808
 H         -4.1558501180        4.1818761625       -5.8699741025
 H         -5.0667312775        2.8791897027       -5.0991318799
 H          9.0302537013        0.4742714984       -1.7951638211
 H          8.1085456038       -0.8616303439       -1.0991500827
 H          8.7561162056       -1.4024837404       -3.4249203083
 H          7.9843963655        0.0783569089       -4.0009597078
 H          4.7691653288       -4.6906306781        4.0871022077
 H          5.0996697786       -4.5834883074        2.3556487871
 H          1.8717003093       -6.2356430309        0.3793533899
 H          1.5369379719       -6.3309498643        2.1099152757
 H         -2.8301592144        1.4544478916        5.4507906271
 H         -2.1445136934        2.7891989200        6.3824070805
 H         -3.5032901327        4.3405848658        2.7959915276
 H         -4.2052971920        3.0026660124        1.8813866614
 H         -4.8781389389        2.5518411429       -2.5470643371
 H         -3.8616307544        3.6592025031       -1.6196873508
 H         -2.0193650806        3.0710427952       -5.2654662017
 H         -3.0406386120        1.9821451851       -6.2092765065
 H          6.9281301981        1.6914396279       -2.2977491340
 H          7.0255622966        1.3070321309       -0.5777126911
 H          6.5681628986       -2.2538572011       -2.6213618793
 H          6.4856850165       -1.8660768052       -4.3422735601
 H          0.6939747974       -0.1328195206        4.1947962813
 H          0.4846128561       -0.7994051928       -0.9567977959
 H          1.4982912737        0.5934026240        0.9442470305
 H          0.7703763999        0.3130397238       -4.1912402339
 H          4.6795980029       -0.6222032308        2.7128440679
 H         -1.2367143884       -3.4488177778        1.9154804145
 H          3.0144126503        3.3030694781        3.1739878119
 H         -3.6046254702       -0.3138448403        0.1603688723
 H         -0.4862902945        4.2389021874       -0.0457856876
 H         -1.5687031150       -3.1184982812       -3.1988068111
 H          3.2329877274        3.2105852645       -1.9492321808
 H          2.7045905493       -3.2683135816       -2.8669956902
 H          1.6194437820       -2.3563057734        4.0237891639
 H          1.8313652146       -2.5346697078       -0.0655579252
 H          0.7027453856        3.5852463738        3.7268982077
 H         -0.7060876125        1.0613875427       -1.7911395707
 H         -0.6359520370        1.0088311520        1.8644341470
 H         -2.6800936939       -1.0518785161       -3.6624030180
 H          3.5651135143       -0.0198614175       -0.0468862424
 H          3.1813842671        0.2475703410       -4.0919028774
 H          2.3219338115       -4.4682105830        3.6461410515
 H          3.1814971113       -4.1447518972        0.7292129872
 H         -1.4657095274        3.9318393473        4.2663681950
 H         -2.5918246290        1.4189915165        2.9453576446
 H         -1.8307176464        2.7738270039       -2.7760435538
 H         -3.8015417404        0.8593594719       -4.1097686605
 H          5.5358153579       -0.6639589596       -0.9174140510
 H          5.4199802764        0.3286646139       -3.8074835575
 C        -10.0043101267        0.0427152439        0.8902008753
 C        -10.0004110254       -0.2607743448       -0.6094203073
 O        -11.0995847000        0.8785406578        1.2257215711
 C        -12.3232193150        0.2777969049        0.8365386883
 C        -12.3199698801       -0.0250366383       -0.6633036417
 O        -11.2245806879       -0.8595946756       -1.0011445713
 H         -9.1051370027        0.5861886355        1.1805130471
 H         -9.8512963886        0.6715615910       -1.1734438044
 H        -12.4705420947       -0.6550437967        1.3999019690
 H        -12.2526262076        0.9159888200       -1.2285148603
 H         -9.2172548300       -0.9766713966       -0.8593339555
 H        -13.1076242894        0.9918070063        1.0881305157
 H        -13.2188259015       -0.5693090729       -0.9533697346
 H        -10.0721873203       -0.8977489004        1.4557787799