142
-211.12744783
 C          0.1720712688       -7.0963435012        1.2463156757
 C         -0.1011735342       -6.9601180950       -0.2480764784
 C         -4.8118712745        4.4142414066        4.3436152389
 C         -5.2009769587        4.5775708230        2.8777833909
 C         -2.3219258006        6.6574313775       -4.1277438617
 C         -2.2892677326        6.2400579219       -5.5945720450
 C          7.0211364416       -1.8248133175       -1.0136082906
 C          7.0573320177       -2.1233687863       -2.5089254773
 C          0.7964954394       -5.8165147208        1.7905878213
 C         -1.0102452162       -5.7666130471       -0.5144898092
 C         -3.8920408083        3.2112425884        4.5199477497
 C         -3.9562141707        4.7281932715        2.0105628479
 C         -2.8549631765        5.5214661826       -3.2619114054
 C         -1.4380891368        4.9880080276       -5.7739950585
 C          6.1772370465       -0.5859616080       -0.7393395198
 C          5.6432798825       -2.3104606880       -3.0465599343
 C         -0.2880114136       -0.1470261322        3.2385339823
 C         -1.4322902075       -0.0269291216       -1.4638108803
 C          0.8624681026        1.6305579104        0.2116190342
 C          0.6091331105        0.5082361297       -4.4922382534
 C          1.8992147279       -1.0605023839        2.8105969447
 C         -3.2097844108       -1.3124109830       -0.4721197532
 C          1.6555145318        1.2637389855        3.4238759003
 C         -3.6248217778        0.9436034374       -1.2362771929
 C          0.6289806648        4.0160645829       -0.0237053499
 C         -1.3417820459       -0.8925362990       -4.6765396641
 C          2.6405678052        2.9113555865       -0.7849123589
 C          0.7866050460       -1.8542385339       -4.0580353890
 C         -0.0990698140       -2.5000647100        2.5295518550
 C         -0.9619889781       -2.3280024086       -0.7130259018
 C         -0.5768247296        2.2678511501        3.7010903740
 C         -1.7989325594        2.2671722352       -2.2678632493
 C         -1.2005920422        2.7004768443        1.0121451999
 C         -1.5908962890        1.5424691617       -4.9571765079
 C          2.8983418100        0.4586980454       -0.5362389088
 C          2.7820612609       -0.4112279817       -3.7785543964
 C          0.5134376663       -1.2257778337        2.8826802123
 C         -1.8804068877       -1.2109963008       -0.8862068000
 C          0.2719770283        1.1043749243        3.4918889977
 C         -2.2946632010        1.0521714947       -1.6403177103
 C          0.1085977069        2.7885344807        0.3845361585
 C         -0.7547102603        0.3701406765       -4.7467439806
 C          2.1273399879        1.6824768592       -0.3661183469
 C          1.3799503382       -0.5911296082       -4.1324086370
 C          2.4436275613        0.1757824735        3.0928894647
 C         -4.0546646240       -0.2342777958       -0.6534939738
 C          1.8817929787        4.0523875198       -0.6076177511
 C         -0.5577233657       -1.9824201309       -4.3419797409
 C         -0.1081436217       -4.6115536608        1.5351267835
 C         -0.3874105811       -4.4736332629        0.0163574168
 C         -2.6313401599        3.3574796810        3.6717615275
 C         -3.0324140098        3.5248622148        2.1687172870
 C         -2.0048769111        4.2655505254       -3.4245861445
 C         -1.9748063418        3.8359887751       -4.9286298457
 C          4.7517612254       -0.7652055731       -1.2655676800
 C          4.7884585438       -1.0710178682       -2.7850089835
 Br         4.3374655208        0.4057240268        2.9894437989
 Br        -5.8700415322       -0.3680161447       -0.0721001115
 Br         2.5787908114        5.7319519906       -1.1947430002
 Br        -1.3726774260       -3.7072021351       -4.2348749080
 N          0.5564664394       -3.4163352152        1.9591432100
 N         -1.3171114308       -3.4042191041       -0.1597859289
 N         -1.8388386883        2.1763513193        3.7336489220
 N         -2.5670506425        3.1819186346       -2.6842503180
 N         -1.8278231756        3.7176687864        1.4268576024
 N         -1.1049001249        2.7106728774       -4.9932714295
 N          4.0327489609        0.4555484884       -1.0871417368
 N          3.4431783137       -1.3214152884       -3.2051291331
 H         -0.7651551934       -7.2951713596        1.7708713516
 H          0.8456750800       -7.9352313537        1.4292963004
 H         -0.5754756913       -7.8665345156       -0.6274604556
 H          0.8422081816       -6.8248954295       -0.7816156785
 H         -4.3001070225        5.3161114049        4.6875326919
 H         -5.7056699948        4.2798684039        4.9548997533
 H         -5.7664244177        3.7017553706        2.5515357770
 H         -5.8379964058        5.4549579168        2.7555341020
 H         -1.3129522419        6.9194267112       -3.8013002004
 H         -2.9555538172        7.5370632347       -4.0036744887
 H         -1.8795277833        7.0474334173       -6.2035623660
 H         -3.3064165733        6.0399776288       -5.9393421497
 H          8.0327809984       -1.6619858001       -0.6387886825
 H          6.5975777186       -2.6787078829       -0.4803699747
 H          7.6400306153       -3.0266956935       -2.6970205289
 H          7.5392454211       -1.2955476359       -3.0338299643
 H          0.9678445874       -5.9031430339        2.8653245251
 H          1.7587107787       -5.6319884825        1.3098598192
 H         -1.1899435028       -5.6530062007       -1.5852459555
 H         -1.9749491997       -5.9087123210       -0.0249394902
 H         -4.4047782250        2.2953977633        4.2214964020
 H         -3.5967409506        3.1071024304        5.5660319915
 H         -3.4044797900        5.6273754561        2.2895447230
 H         -4.2335139938        4.8147697742        0.9584213925
 H         -3.8829231906        5.2818195425       -3.5386230189
 H         -2.8469245990        5.8096517687       -2.2091718373
 H         -0.4072620769        5.1848720601       -5.4750100750
 H         -1.4325085014        4.6776045996       -6.8208589202
 H          6.6154432714        0.2863171034       -1.2267472580
 H          6.1301204222       -0.3841270383        0.3324657195
 H          5.1660875665       -3.1654211724       -2.5645351098
 H          5.6651319766       -2.4988385964       -4.1219097133
 H         -1.3607545859       -0.2482822667        3.2950285329
 H         -0.4050989395        0.0562508779       -1.7895420261
 H          0.4610512011        0.6824508904        0.5403420963
 H          1.0427800552        1.4945555971       -4.5504250576
 H          2.5130466302       -1.9024237087        2.5332114387
 H         -3.5473875088       -2.2329411159       -0.0239667512
 H          2.1039576330        2.2268003141        3.6162935875
 H         -4.2860268105        1.7824680633       -1.3827970196
 H          0.0399434162        4.9075823543        0.1197375597
 H         -2.3968540660       -1.0153632103       -4.8698206622
 H          3.6203285376        2.9416700397       -1.2336507656
 H          1.3925293086       -2.7009596534       -3.7779351118
 H         -1.1694565308       -2.5947446679        2.7586472824
 H          0.0571233604       -2.1690912850       -1.1002410960
 H         -0.0569309334        3.2345137007        3.7737396960
 H         -0.7051320605        2.3302527232       -2.3660833962
 H         -1.6036993381        1.6819666047        1.1123336093
 H         -2.6724097307        1.3546542202       -5.0273179766
 H          2.4246357399       -0.4580910893       -0.1503730017
 H          3.2111413394        0.5731721015       -4.0112909699
 H         -1.0809546171       -4.7382301250        2.0394577441
 H          0.5730015127       -4.2705377643       -0.4898216721
 H         -2.0624102153        4.2573883103        3.9637124809
 H         -3.5458345001        2.5946059023        1.8748305101
 H         -0.9596687744        4.4582642463       -3.1315963797
 H         -3.0086422888        3.5815435093       -5.2202284220
 H          4.2556753740       -1.6120842083       -0.7591522342
 H          5.2159700105       -0.1876639971       -3.2889152449
 C         -0.2072326104       -6.7401333190        9.0561923119
 C          1.1550953267       -7.2327902037        9.5478710349
 O         -0.0479874895       -5.6799528155        8.1274683296
 C          0.7582779995       -6.0889622065        7.0355122514
 C          2.1198127279       -6.5851977068        7.5266858909
 O          1.9590293311       -7.6443150037        8.4548814906
 H         -0.7978364138       -6.3380650624        9.8794357258
 H          1.6628862894       -6.4246328218       10.0941838788
 H          0.2501590219       -6.8943636848        6.4854186742
 H          2.6623949490       -5.7564790825        8.0043653583
 H          1.0454023932       -8.1054028656       10.1918950855
 H          0.8704305687       -5.2131022687        6.3960162043
 H          2.7082178167       -6.9885293682        6.7023886369
 H         -0.7470271924       -7.5695912062        8.5770416820