142
-211.12751992
 C          3.8530803770       -6.6769714445        2.4864053442
 C          3.4721230812       -6.8820067344        1.0237553800
 C         -4.7860603736        2.7021573714        4.4321829429
 C         -5.2425201812        2.4976511706        2.9911526269
 C         -3.5726252958        4.3351251779       -4.4253163852
 C         -3.4689686478        3.7079829320       -5.8118852703
 C          8.2956675518        0.1186168230       -1.1160731391
 C          8.3594995389       -0.3782159340       -2.5566926688
 C          4.0074078900       -5.1913880089        2.7912744900
 C          2.1850742200       -6.1331918055        0.6995523938
 C         -3.4917277360        1.9404342971        4.6949211028
 C         -4.1550921228        2.9431182639        2.0199995441
 C         -3.6313246915        3.2523996148       -3.3536070309
 C         -2.2428169107        2.8061946041       -5.8985537452
 C          7.0884109890        1.0278234828       -0.9211494635
 C          7.0742805845       -1.1120650830       -2.9216366998
 C          1.0350498540       -0.0978936875        3.5887968013
 C         -0.2772785808       -1.1115601445       -0.9547544930
 C          1.3848230068        1.4484151512        0.2520416925
 C          1.3083581180       -0.4293776657       -4.2102084893
 C          3.3832815710       -0.2505496427        3.0749591179
 C         -1.4367792798       -2.7166890763        0.4140882968
 C          2.3509034059        1.9102775258        3.3952905504
 C         -2.6496055475       -0.8898474646       -0.6054980655
 C          0.3301347013        3.5512355425       -0.2640351977
 C         -0.0337603898       -2.4200755239       -4.0147721704
 C          2.5672628902        3.0873956085       -1.0556850756
 C          2.3226460450       -2.4907347263       -3.4864214463
 C          2.0214869430       -2.3189138841        3.1816747822
 C          1.0035680988       -2.9625962521        0.0488253877
 C         -0.0801314607        2.1056644784        3.7452880585
 C         -1.4579715205        0.7618748444       -2.0216922106
 C         -0.8886664405        1.8658810957        1.0871973146
 C         -1.1336786248       -0.2932572716       -4.5930811614
 C          3.6664298571        0.9300741193       -0.5250499788
 C          3.6967456471       -0.4315502395       -3.5985192270
 C          2.1530074953       -0.8728929932        3.3029011832
 C         -0.2531916538       -2.2592684739       -0.1681604976
 C          1.1204412650        1.2933159079        3.6174685166
 C         -1.4670223280       -0.4230675361       -1.1778143433
 C          0.2839656121        2.2965255185        0.3424752811
 C          0.0694474695       -1.0611780026       -4.3094793428
 C          2.5283203900        1.8349404310       -0.4402085200
 C          2.4314018185       -1.1298723710       -3.7850913910
 C          3.4609812889        1.1258754165        3.1364788240
 C         -2.6094698777       -2.0221534246        0.1872008237
 C          1.4686423532        3.9195133226       -0.9568981046
 C          1.0970359473       -3.1112766785       -3.6174793413
 C          2.7205348050       -4.4300428744        2.4761259251
 C          2.3338027743       -4.6382184078        0.9892319187
 C         -2.3882976696        2.3893198478        3.7403081583
 C         -2.8603636636        2.1749045586        2.2639921080
 C         -2.4043746663        2.3488322178       -3.4220225421
 C         -2.2977751383        1.7044297636       -4.8434627293
 C          5.7897556640        0.2995792478       -1.2738335206
 C          5.8548409232       -0.2096427208       -2.7367209725
 Br         5.1403423113        1.9796680070        2.8164658369
 Br        -4.2252739893       -2.6352794233        1.0019856698
 Br         1.5171814943        5.6274278691       -1.8126272347
 Br         0.9442984809       -4.9703398799       -3.2039539503
 N          2.9334793553       -3.0280384862        2.6719770772
 N          1.0785891029       -3.9921559897        0.7733800889
 N         -1.2240507856        1.5849684041        3.8962996897
 N         -2.5162308249        1.2817025957       -2.4795234765
 N         -1.8233147211        2.6555540173        1.4083595818
 N         -1.0915832398        0.9478680957       -4.8376127593
 N          4.7016339671        1.2199876949       -1.1843229772
 N          4.6628156321       -0.9629925618       -2.9831875202
 H          3.0770441207       -7.1009301068        3.1275530363
 H          4.7898934572       -7.1920370277        2.7055368607
 H          3.3329920848       -7.9443077375        0.8173945302
 H          4.2767089951       -6.5167195222        0.3817797554
 H         -4.6240615124        3.7668976617        4.6150308052
 H         -5.5574782519        2.3556418511        5.1216645661
 H         -5.4638736096        1.4407272221        2.8259777183
 H         -6.1532758611        3.0683097491        2.8031572464
 H         -2.7039357728        4.9734001805       -4.2487592233
 H         -4.4666128432        4.9575556039       -4.3625739738
 H         -3.3990788583        4.4887877462       -6.5708711357
 H         -4.3671776583        3.1199925252       -6.0142415443
 H          9.2049181471        0.6682208703       -0.8677784555
 H          8.2218080496       -0.7345171671       -0.4381153280
 H          9.2101155613       -1.0498274886       -2.6844686666
 H          8.4965455143        0.4715310607       -3.2291475967
 H          4.2527978506       -5.0410759072        3.8446118280
 H          4.8147583978       -4.7650311494        2.1934249199
 H          1.9226213904       -6.2605091177       -0.3523718460
 H          1.3605954561       -6.5191220061        1.3009606850
 H         -3.6491390395        0.8689631136        4.5611826184
 H         -3.1531447594        2.1067094025        5.7196058118
 H         -3.9532840888        4.0090202753        2.1371101530
 H         -4.4709750514        2.7705820925        0.9896793836
 H         -4.5225449826        2.6363179940       -3.4834631768
 H         -3.6734696699        3.7027988979       -2.3602842822
 H         -1.3329293158        3.3881706193       -5.7433060607
 H         -2.1813796448        2.3401415089       -6.8841554061
 H          7.1713085395        1.9090269698       -1.5591751754
 H          7.0272676645        1.3671954027        0.1146339825
 H          6.9497332412       -1.9926089112       -2.2890635384
 H          7.1068447248       -1.4457835275       -3.9608349284
 H          0.0730069439       -0.5548027755        3.7616878428
 H          0.6358552312       -0.7525082723       -1.4078863620
 H          1.3502233669        0.4814239984        0.7336160473
 H          1.3661524718        0.6230776291       -4.4409852363
 H          4.2447319054       -0.8598259550        2.8530972196
 H         -1.4083222190       -3.6042934517        1.0253059391
 H          2.4326015971        2.9866508871        3.4129777931
 H         -3.5668802548       -0.3535777883       -0.7878151677
 H         -0.5251493260        4.2027827918       -0.1841187723
 H         -0.9865570652       -2.9227955184       -4.0857512695
 H          3.4567221610        3.3779050721       -1.5910913316
 H          3.1992540977       -3.0257231611       -3.1579663672
 H          1.0683744411       -2.7423913613        3.5272311787
 H          1.8800480519       -2.5346215491       -0.4635950497
 H          0.0611517719        3.1917269899        3.6439541588
 H         -0.4607094933        1.1694010774       -2.2439055923
 H         -0.9021360758        0.8006807848        1.3611508842
 H         -2.0825251431       -0.8458213093       -4.5272787608
 H          3.5597815836       -0.0193045445        0.0236054349
 H          3.7413059597        0.5915961373       -3.9965890216
 H          1.8839493832       -4.8052723111        3.0895080854
 H          3.1328984705       -4.2012733727        0.3644112713
 H         -2.1723538186        3.4646763984        3.8649153481
 H         -3.0178742732        1.0910368364        2.1387277670
 H         -1.4800218249        2.9299234646       -3.2697300818
 H         -3.1886170453        1.0679303826       -4.9850849439
 H          5.6444632520       -0.5742388358       -0.6141821155
 H          5.9208327042        0.6759627239       -3.3911808926
 C         -9.8828202016        0.7123581588        4.4321944964
 C        -10.4534362891       -0.5142250993        3.7176984567
 O        -10.8175240620        1.7788391935        4.4173705838
 C        -12.0410095992        1.3791462623        5.0112825285
 C        -12.6113311708        0.1527890654        4.2956652442
 O        -11.6770994740       -0.9132848453        4.3128599026
 H         -8.9930160470        1.0798522581        3.9220267891
 H        -10.6210188375       -0.2771304275        2.6571432867
 H        -11.8742152148        1.1409204913        6.0718479798
 H        -12.8524198108        0.4134907653        3.2548569243
 H         -9.7784679500       -1.3656589797        3.8053937748
 H        -12.7158127026        2.2307994479        4.9233616277
 H        -13.5034953397       -0.2147710026        4.8028582576
 H         -9.6392751650        0.4521008433        5.4723949461