142
-211.12836891
 C          1.4139352861       -6.1103562918        6.5287236588
 C          1.6348746563       -7.2098886346        5.4941283880
 C          0.4954375355        6.2727894059        5.6800929178
 C         -1.0285973930        6.2507813230        5.6791335709
 C          7.5460708640       -0.3830662997       -3.8371132617
 C          7.4718841717        0.9653726039       -3.1269311288
 C         -2.4983870080        4.6794803134       -6.9616192461
 C         -1.9122963643        3.3818625787       -7.5088279943
 C          2.1348967652       -4.8314558220        6.1164829469
 C          1.1727762317       -6.7494018503        4.1157019109
 C          1.0403627773        4.8784430588        5.3988496195
 C         -1.5447030068        5.7332580395        4.3426362046
 C          6.7062006071       -1.4236064426       -3.1037486998
 C          6.0242448421        1.4291565221       -3.0044620035
 C         -3.2480888542        4.4174285998       -5.6600342470
 C         -0.9883215239        2.7387192864       -6.4807443539
 C          1.9256001380        0.3082471232        3.6353859776
 C          2.7173654489       -3.3704318134       -0.5169938944
 C         -2.4545126054        3.3058356490        0.1405526854
 C          0.9373794936        0.9002337758       -2.1830634150
 C          3.8078091243       -1.0934619790        3.0905235177
 C          0.4304581222       -3.9200634912        0.0117854238
 C          3.8532382573        1.2594905739        2.5459582192
 C          0.9508216016       -2.7133907947       -2.0152803861
 C         -4.0684273288        1.9199083576        1.2706811807
 C          1.0709425820        0.0270188551        0.0584402866
 C         -4.1849385363        2.2083563554       -1.1257145219
 C         -1.0782621051        0.3069279589       -1.0020809389
 C          1.8075956733       -2.1134116397        4.1235665987
 C          2.2306206851       -4.5574424417        1.5871718563
 C          1.9915454861        2.7456278508        3.1649716027
 C          3.2444814813       -2.0136598978       -2.5305193042
 C         -2.3626315981        3.0776368546        2.6118626498
 C          3.1542922800        0.4179733491       -1.1666824837
 C         -2.4779105779        3.5490509182       -2.3136594071
 C         -1.2767020941        1.2073416916       -3.2757016313
 C          2.5238367001       -0.9472848180        3.6217492801
 C          1.7890808856       -3.9562713265        0.3369100053
 C          2.5867652826        1.4165262004        3.1082961157
 C          2.3061803075       -2.7381368095       -1.6881209101
 C         -2.9559345226        2.7595443912        1.3204194994
 C          1.7043485744        0.4911332503       -1.0954916647
 C         -3.0589219426        3.0345104669       -1.0825555891
 C         -0.4493644901        0.7977077479       -2.1475200314
 C          4.4446462684        0.0084153164        2.5583178144
 C          0.0398709100       -3.3050402807       -1.1592771209
 C         -4.6645739878        1.6659194656        0.0487156365
 C         -0.3073742016       -0.0415777173        0.0888386151
 C          1.6513643602       -4.3612412521        4.7423383197
 C          1.9085036624       -5.4769681314        3.7005299833
 C          0.5317606084        4.3396470588        4.0530333193
 C         -1.0053506286        4.3276260325        4.0412634414
 C          5.2536801196       -0.9693482869       -3.0027147022
 C          5.1967676891        0.3985048140       -2.2441823249
 C         -2.3268253337        3.7904065094       -4.6166852428
 C         -1.7287640405        2.4591793036       -5.1756633001
 Br         6.1924042717       -0.1978591356        1.8070646522
 Br        -1.8162814361       -3.2332322246       -1.6078159066
 Br        -6.1969546614        0.5259711016       -0.0147238597
 Br        -1.1612226802       -0.6630149749        1.6708420024
 N          2.3945242119       -3.2121674198        4.3265020306
 N          1.4170763276       -5.0055953568        2.4419257555
 N          1.0146341157        2.9983154773        3.9214578630
 N          4.4729686783       -1.8949258451       -2.2476012081
 N         -1.4705238992        3.9619583778        2.7365630554
 N          3.8213049126        0.7715845904       -2.1821807076
 N         -3.0525634968        3.4481549753       -3.4372562137
 N         -0.8244191556        1.9580864512       -4.1898953544
 H          0.3445253295       -5.9084360320        6.6216202295
 H          1.7818125811       -6.4357672112        7.5034804759
 H          1.0853481005       -8.1078109072        5.7817880061
 H          2.6968341534       -7.4632306946        5.4541707945
 H          0.8510645652        6.9656798509        4.9142477148
 H          0.8664775615        6.6175071218        6.6469073894
 H         -1.3847428393        5.6036672959        6.4836215584
 H         -1.4194640216        7.2546528498        5.8541387745
 H          7.1776620446       -0.2762930266       -4.8601569473
 H          8.5823815567       -0.7212783778       -3.8858647849
 H          8.0480926949        1.7096605531       -3.6792323038
 H          7.9057753371        0.8736172904       -2.1286621345
 H         -3.1799014177        5.1193091740       -7.6917360161
 H         -1.6924795532        5.3940178914       -6.7792953729
 H         -1.3546294586        3.5811318104       -8.4255783830
 H         -2.7228412210        2.6907614638       -7.7508506709
 H          1.9501560348       -4.0379653941        6.8439274143
 H          3.2119633441       -5.0011507046        6.0679331423
 H          1.3623524642       -7.5252488534        3.3712068588
 H          0.1012490222       -6.5436166103        4.1224948489
 H          0.7277039625        4.1865974467        6.1833032805
 H          2.1325792191        4.8909906458        5.3779145321
 H         -1.2338666738        6.3989586024        3.5351137064
 H         -2.6362063585        5.6936643330        4.3431999447
 H          7.0919882147       -1.5816643930       -2.0956148087
 H          6.7376047814       -2.3786836112       -3.6319335833
 H          5.5832470858        1.5739513445       -3.9919509208
 H          5.9745704826        2.3797952066       -2.4699372970
 H         -4.0856910523        3.7414357192       -5.8380361097
 H         -3.6471831424        5.3502233750       -5.2562639142
 H         -0.1446279528        3.3962544799       -6.2646840238
 H         -0.5905539106        1.7967373194       -6.8633805807
 H          0.9406287978        0.4468013001        4.0521804845
 H          3.7707726988       -3.3777323175       -0.2841593382
 H         -1.5866559123        3.9439286344        0.2002592419
 H          1.4241100906        1.2735240526       -3.0689041569
 H          4.2676159043       -2.0682044684        3.1007045947
 H         -0.2808138155       -4.3651667206        0.6887809541
 H          4.3707868071        2.1058848252        2.1196366418
 H          0.6169735339       -2.2217216091       -2.9167242144
 H         -4.4579331773        1.4755056050        2.1739868316
 H          1.6524891949       -0.2871186350        0.9121042245
 H         -4.6372595999        1.9842543470       -2.0767495515
 H         -2.1521913505        0.2074214047       -0.9751206219
 H          0.7306143906       -1.9755862696        4.2902385316
 H          3.3177739509       -4.5700139962        1.7485151427
 H          2.4745479250        3.5163327320        2.5452391474
 H          2.8031096121       -1.5295819954       -3.4144084312
 H         -2.7672489708        2.5263949981        3.4727289747
 H          3.6376295657       -0.0297976143       -0.2850481436
 H         -1.4888973579        4.0183437624       -2.2053614069
 H         -2.3103703926        0.8390134362       -3.2688530459
 H          0.5674423135       -4.1546596857        4.7745703416
 H          2.9979222481       -5.6535229157        3.6688007644
 H          0.8896376981        4.9879132928        3.2342685572
 H         -1.3539888988        3.6197031350        4.8132525260
 H          4.8260368318       -0.7988063693       -4.0057176873
 H          5.6206735784        0.2253273780       -1.2412975756
 H         -1.4771239757        4.4601857583       -4.3962953231
 H         -2.5728592796        1.7712777476       -5.3404006895
 C         -5.2988531899        0.9113776930       -4.6076178963
 C         -6.8052753344        0.7491999332       -4.4037341107
 O         -4.5829704946        0.0700911805       -3.7151899804
 C         -4.9672239550       -1.2847705760       -3.8863902830
 C         -6.4769692263       -1.4468275812       -3.7023649242
 O         -7.1836261915       -0.6031525464       -4.5973177119
 H         -4.9727310733        1.9305625671       -4.3920905089
 H         -7.0806073894        1.0647044700       -3.3874108850
 H         -4.6798736314       -1.6187080121       -4.8939399166
 H         -6.7520566344       -1.1983647897       -2.6680703696
 H         -7.3625620691        1.3319607198       -5.1373116381
 H         -4.4211592716       -1.8589006658       -3.1373366207
 H         -6.7852531180       -2.4662960994       -3.9328513661
 H         -5.0433942018        0.6427791703       -5.6435601864