142
-211.12772453
 C          3.6239401914       -4.4735250759        7.2064976797
 C          4.8671923885       -4.9114637255        6.4379054018
 C         -5.7833281383        3.1167150624        4.4162039290
 C         -6.6895805079        1.9896056473        3.9356833556
 C          6.1911040656        5.2114889925       -1.5976886332
 C          4.9349327915        5.9562392193       -1.1554910202
 C         -2.5086833806        1.4798409284       -8.3237410071
 C         -1.0543160443        1.0404709728       -8.4593989548
 C          3.2514828069       -3.0375724271        6.8534061326
 C          4.6482950054       -4.7640322381        4.9358870686
 C         -4.3411714302        2.6324933470        4.4904173982
 C         -6.2229759445        1.4879694131        2.5750834202
 C          6.2246134978        3.8102403193       -0.9965650786
 C          3.6832868022        5.1741818079       -1.5397686340
 C         -3.2181726260        0.6498108529       -7.2600758599
 C         -0.3345870225        1.1614095806       -7.1209807092
 C          0.0858234589        0.5481819391        3.7230911232
 C          4.4689548046       -0.7678847503        0.5449863624
 C         -3.6978780931       -0.2105298446       -1.3797232853
 C          0.7571011705        0.9414934587       -2.1832472221
 C          2.4246111497        1.0758176125        3.9585006528
 C          3.3095698781       -2.8797312470        0.4532733303
 C          0.8866528668        2.7395059154        3.1199033847
 C          3.3391817117       -1.4271892941       -1.4763669826
 C         -4.2900218898       -2.4241598280       -0.6401469956
 C          0.7462802976        0.2283888303        0.1173245264
 C         -3.8510565014       -2.0107432249       -2.9788808049
 C         -0.4355865975       -1.0549378335       -1.5488512405
 C          1.6446597586       -1.2082987546        4.4946565195
 C          4.4266118431       -2.1940089528        2.5538920444
 C         -1.5242835245        2.2715062184        2.9483130585
 C          4.3889983507        0.7866835751       -1.3924688885
 C         -4.2781127447       -0.6077958549        1.0100021720
 C          2.1248158266        2.1555631064       -0.4995695143
 C         -3.1620240513        0.2441947182       -3.7375273612
 C         -0.4677756165       -0.3690313338       -3.9039454878
 C          1.3763463243        0.1582262185        4.0646507148
 C          4.0778833824       -1.9516914486        1.1613827747
 C         -0.1681535175        1.8378026308        3.2584016451
 C          4.0954553016       -0.4935657403       -0.7685088426
 C         -4.0650955137       -1.0771817212       -0.3527150947
 C          1.1687734206        1.1239040651       -0.8663092821
 C         -3.5922008757       -0.6688293639       -2.6891267852
 C         -0.0308146152       -0.1504971781       -2.5317805516
 C          2.1621128465        2.3440864647        3.4833919155
 C          2.9600361744       -2.6012230494       -0.8516259422
 C         -4.1851404159       -2.8648449750       -1.9474803770
 C         -0.0598963084       -0.8334271753       -0.2391532926
 C          3.0109003478       -2.8999837131        5.3481168358
 C          4.2902287007       -3.3214395627        4.5848041361
 C         -3.8492512234        2.1230582161        3.1263871294
 C         -4.7686143445        0.9971370186        2.6275059508
 C          4.9836484320        3.0211863326       -1.4011182656
 C          3.7086693223        3.7850692256       -0.9112929959
 C         -2.5181714975        0.7733714960       -5.9090480771
 C         -1.0259398764        0.3261488866       -6.0470912394
 Br         3.6027215915        3.5916632046        3.3114548708
 Br         1.8940718154       -3.8531043971       -1.8278952997
 Br        -4.5155556639       -4.7122240427       -2.3336062027
 Br        -0.6426907708       -2.0402419815        1.1092582258
 N          2.7477912653       -1.5344267611        5.0139779238
 N          4.0091763617       -3.2034135756        3.1865986474
 N         -2.5287544741        1.6065478247        3.3216371938
 N          4.9615337589        1.7360423695       -0.7806695496
 N         -4.4016043732        0.6169112415        1.2933536543
 N          2.5854171014        3.0045628305       -1.3169785367
 N         -3.1178277791       -0.0993410194       -4.9557876760
 N         -0.4135988312        0.5451978133       -4.7771885061
 H          2.7910065599       -5.1346310415        6.9570606094
 H          3.8037432443       -4.5478638175        8.2805101003
 H          5.1026749970       -5.9511220231        6.6717560978
 H          5.7176975784       -4.2968634553        6.7419817657
 H         -5.8513761486        3.9599660515        3.7253105145
 H         -6.1001068378        3.4603424399        5.4024343245
 H         -6.6653164949        1.1694312038        4.6562866308
 H         -7.7196640257        2.3415445091        3.8580049866
 H          6.2059273769        5.1381371229       -2.6877011043
 H          7.0795844781        5.7624237458       -1.2850451261
 H          4.9047403343        6.9438943342       -1.6188312558
 H          4.9563541822        6.0910511357       -0.0717128781
 H         -3.0248273537        1.3650072793       -9.2783728806
 H         -2.5456311968        2.5355034198       -8.0449192284
 H         -0.5455578685        1.6557361855       -9.2034921743
 H         -1.0181712991        0.0026963363       -8.7984474086
 H          2.3443084682       -2.7377139109        7.3825975363
 H          4.0525438006       -2.3550438855        7.1426073468
 H          5.5505470521       -5.0463958488        4.3896475285
 H          3.8365657751       -5.4132771626        4.6039831337
 H         -4.2546560161        1.8168072155        5.2106851872
 H         -3.6821488384        3.4399933985        4.8174953255
 H         -6.2881906984        2.2895788094        1.8368371191
 H         -6.8547560941        0.6651121500        2.2337098248
 H          6.2628659246        3.8645788536        0.0923284252
 H          7.1092850523        3.2702049236       -1.3397725959
 H          3.6156835131        5.0678395656       -2.6235884455
 H          2.7887915960        5.6968504932       -1.1953516459
 H         -3.2308093072       -0.4029546239       -7.5466272203
 H         -4.2529532146        0.9798288834       -7.1470479010
 H         -0.3188420420        2.2014617890       -6.7910338775
 H          0.6988921517        0.8217031847       -7.2131095294
 H         -0.7407168005       -0.1390705793        3.8096215221
 H          5.0545172302       -0.0317818632        1.0733732439
 H         -3.4901086115        0.8217954724       -1.1489349857
 H          1.0737696248        1.6371178937       -2.9426407308
 H          3.4177331246        0.7674934273        4.2417431803
 H          3.0004724808       -3.7871134273        0.9466636049
 H          0.7076279056        3.7365374821        2.7459424372
 H          3.0388260048       -1.2254584544       -2.4935696181
 H         -4.5532136798       -3.1129947703        0.1480044297
 H          1.0549293357        0.3587900882        1.1435252325
 H         -3.7751719014       -2.3519966121       -3.9987949299
 H         -1.0354124354       -1.9129469944       -1.8106559734
 H          0.8357709912       -1.9300091933        4.3168554398
 H          5.0555535807       -1.4254150136        3.0248124178
 H         -1.6135916991        3.2291057317        2.4138681791
 H          4.0333055807        0.8951123542       -2.4278340472
 H         -4.3831428164       -1.3944035350        1.7704389389
 H          2.4707265793        2.1129212340        0.5445389552
 H         -2.8703703816        1.2458371081       -3.3943100844
 H         -0.8598064238       -1.3720005262       -4.1234720221
 H          2.1836130037       -3.5613189120        5.0367507975
 H          5.0990400610       -2.6364409493        4.8939704977
 H         -3.8636913965        2.9499205166        2.3958755521
 H         -4.6869963101        0.1483653490        3.3280623127
 H          4.9097941054        2.9442183094       -2.4995531057
 H          3.7823108341        3.8585257879        0.1863751296
 H         -2.5104762195        1.8224104054       -5.5646171129
 H         -1.0353245319       -0.7413782772       -6.3234981656
 C         -4.2315739671        3.4790965505       -0.6866366735
 C         -5.4649396641        3.6610614354       -1.5715706077
 O         -3.0985902861        3.1424683338       -1.4759196956
 C         -2.8645881482        4.1325342631       -2.4632856456
 C         -4.0998813665        4.3078800990       -3.3485866538
 O         -5.2291757485        4.6469594276       -2.5637626065
 H         -4.3709926173        2.6532003622        0.0146105900
 H         -5.7170260896        2.7051930985       -2.0528922914
 H         -2.6244481923        5.0881038022       -1.9755133916
 H         -4.3008031226        3.3739643929       -3.8943968939
 H         -6.3145853731        4.0166374456       -0.9888822065
 H         -2.0071946033        3.7914659609       -3.0443332041
 H         -3.9601728248        5.1272239410       -4.0540598595
 H         -4.0289899053        4.4148611414       -0.1452165472