142
-211.12686302
 C          6.0334596635       -5.3199061255        3.4992621855
 C          5.4154387645       -6.0655057765        2.3208814231
 C         -4.4079527359        1.8721278017        5.8541098757
 C         -5.1122328180        1.0982096531        4.7442199780
 C         -5.9241834085        0.7959599274       -3.1253297329
 C         -5.9417811309       -0.1820603660       -4.2958159242
 C          7.0756039300        0.8737662875       -2.7948320709
 C          6.9706182764       -0.0197302213       -4.0264866137
 C          5.7705695722       -3.8233894989        3.3768891431
 C          3.9186886868       -5.7898922640        2.2435211696
 C         -2.9138080372        1.5692392240        5.8505465141
 C         -4.5025993222        1.4374909259        3.3886065925
 C         -5.3846849242        0.1172294366       -1.8712399483
 C         -4.5445791805       -0.7373770486       -4.5483320677
 C          5.7149539930        1.4684611094       -2.4526578750
 C          5.9480417037       -1.1258566493       -3.7932702366
 C          1.6069366165        0.3983421487        3.8388472231
 C         -0.3383843782       -2.3060375040        0.3020562745
 C          0.6203426873        0.8160475169        0.3176131528
 C          0.1405115774       -2.3255898576       -3.3518360839
 C          3.6895897455        0.6507335000        2.6556206788
 C         -0.5709050423       -3.6441120376        2.2895797493
 C          2.1278212664        2.4909954685        2.7660161718
 C         -2.5104242978       -2.5899321652        1.3028561058
 C         -1.1574300316        2.3094294077       -0.3221772805
 C         -0.4069653260       -4.4137570546       -2.2832982209
 C          0.8557483575        2.1755052083       -1.6549601963
 C          1.9015990388       -3.7401274107       -2.5155897460
 C          3.1236773413       -1.5364984500        3.6759107000
 C          1.6674902370       -3.3731795614        1.2596172966
 C         -0.0821057213        2.2061640398        3.8186164442
 C         -2.2756730421       -1.2166028929       -0.7488682399
 C         -1.3976894885        0.9182367979        1.7172186263
 C         -2.2340078149       -2.9122345009       -2.9737751943
 C          2.6977526565        0.6514079324       -1.0001085341
 C          2.4738749812       -1.5528840772       -3.5312548203
 C          2.8124724884       -0.1394101168        3.4034046653
 C          0.2355816919       -3.1076171207        1.2842231104
 C          1.2481108045        1.7043395163        3.5083982374
 C         -1.7057311422       -2.0420567734        0.3046316778
 C         -0.6441955212        1.3508704579        0.5506948814
 C         -0.8169689773       -3.2362957118       -2.9073921549
 C          1.3771299614        1.2237650737       -0.7766901189
 C          1.4949267990       -2.5608381637       -3.1454777550
 C          3.3363564098        1.9519975307        2.3617123404
 C         -1.9258468394       -3.3736630229        2.2805641079
 C         -0.4001770409        2.6976888942       -1.4120094616
 C          0.9453600698       -4.6475307982       -2.1073732049
 C          4.2718565851       -3.5335177617        3.3051628986
 C          3.6436470486       -4.2909064495        2.1072198566
 C         -2.2863330854        1.9202505131        4.5039876289
 C         -3.0103394347        1.1229258410        3.3690135539
 C         -3.9810141880       -0.4304220314       -2.1085185159
 C         -4.0010907690       -1.4374896996       -3.3055061536
 C          4.6817970934        0.3675335850       -2.2042978427
 C          4.5764633529       -0.5432711418       -3.4544384401
 Br         4.5307179733        3.0326019476        1.3340653215
 Br        -3.0261355110       -4.0947901778        3.6663742559
 Br        -1.1191676776        3.9893105999       -2.6225601308
 Br         1.4982950354       -6.2576031075       -1.2399086675
 N          4.0654673055       -2.1343422108        3.0844165960
 N          2.2331595553       -4.0703711601        2.1453137778
 N         -0.9238882028        1.5101159189        4.4582038104
 N         -3.5206911174       -1.1427815699       -0.9596239133
 N         -2.4282483089        1.5254746860        2.1288011698
 N         -2.6488485090       -1.8383398323       -3.4998602247
 N          3.4024625745        0.9673741124       -1.9970960963
 N          3.6718459750       -1.6058913628       -3.1358759062
 H          5.6008671407       -5.6899263659        4.4314565271
 H          7.1095786315       -5.4981481728        3.5329218536
 H          5.5794041751       -7.1388458075        2.4280707750
 H          5.8928860791       -5.7427494651        1.3931046168
 H         -4.5616082219        2.9434760027        5.7056075977
 H         -4.8299160255        1.6021939488        6.8234917909
 H         -5.0126721795        0.0261175372        4.9284086249
 H         -6.1758352029        1.3415660885        4.7360680898
 H         -5.2921739608        1.6511407102       -3.3751603584
 H         -6.9322667574        1.1666437304       -2.9331673278
 H         -6.3006952559        0.3193289225       -5.1960454086
 H         -6.6246352661       -1.0051606902       -4.0729822210
 H          7.7867216348        1.6811500930       -2.9761060441
 H          7.4397612694        0.2877824228       -1.9481192187
 H          7.9416053357       -0.4642274313       -4.2512785758
 H          6.6670372578        0.5806272443       -4.8869825592
 H          6.1883387032       -3.2907933940        4.2337365457
 H          6.2407693697       -3.4299405474        2.4740502943
 H          3.4781355266       -6.3047828020        1.3876927803
 H          3.4203783034       -6.1494141657        3.1451184471
 H         -2.7417862830        0.5095004292        6.0457007844
 H         -2.4070113589        2.1425177984        6.6295931462
 H         -4.6364839476        2.4971898480        3.1654602829
 H         -4.9878613979        0.8620302397        2.5982140863
 H         -6.0335344358       -0.7091785679       -1.5767036619
 H         -5.3436332195        0.8263813673       -1.0424874544
 H         -3.8599302646        0.0682956851       -4.8182505988
 H         -4.5626206655       -1.4549431271       -5.3712330932
 H          5.3585707918        2.0945387478       -3.2720817120
 H          5.7828469540        2.0912125167       -1.5586780814
 H          6.2644337746       -1.7644715990       -2.9667778157
 H          5.8512738470       -1.7505239230       -4.6836746442
 H          0.9107455020       -0.1937351435        4.4123990796
 H          0.2805965761       -1.8895759958       -0.4799463759
 H          1.0201961107        0.0821310297        1.0028799951
 H         -0.1981339511       -1.4198171262       -3.8305022017
 H          4.6225007201        0.2251103508        2.3223603578
 H         -0.1174860581       -4.2617066077        3.0480066732
 H          1.8634388544        3.5036821065        2.5011824390
 H         -3.5687857920       -2.3847874541        1.2931153335
 H         -2.1350433035        2.7216648548       -0.1305830189
 H         -1.1367443916       -5.1278816603       -1.9325477598
 H          1.4483708930        2.4844154847       -2.5009095839
 H          2.9542743330       -3.9140006965       -2.3601175460
 H          2.4658602545       -2.0403641144        4.3975167556
 H          2.2179327146       -2.9269839370        0.4159597565
 H         -0.3276139418        3.1996658290        3.4155333735
 H         -1.5439586053       -0.6671163924       -1.3593692022
 H         -0.9992739332        0.0284837833        2.2267868178
 H         -2.9139909071       -3.6290772549       -2.4904152358
 H          3.0361142892       -0.0712205229       -0.2404625569
 H          2.0939473619       -0.7319061953       -4.1549339505
 H          3.7621581733       -3.8819659978        4.2194170076
 H          4.0958584644       -3.8973584299        1.1796470574
 H         -2.4065816705        2.9947117193        4.2809875680
 H         -2.8321310489        0.0542273455        3.5724933058
 H         -3.2866010020        0.3782894272       -2.3895139232
 H         -4.6488614164       -2.2828606959       -3.0148778656
 H          4.9843277332       -0.2613495732       -1.3483018714
 H          4.1999586495        0.0784774774       -4.2843546980
 C         -7.7605133097       11.5185702075       -3.2615615371
 C         -6.9120606491       12.4579003306       -4.1211450353
 O         -7.4058994138       10.1670014171       -3.5009462581
 C         -6.0253121744        9.9608159779       -3.2512044909
 C         -5.1769766657       10.9002706225       -4.1105135490
 O         -5.5318647206       12.2521161222       -3.8706060991
 H         -8.8171939239       11.6062218789       -3.5147234369
 H         -7.1237666766       12.2749033652       -5.1845889362
 H         -5.8133245161       10.1434663047       -2.1877708883
 H         -5.3286428446       10.6638553683       -5.1736088401
 H         -7.1145267029       13.5005687073       -3.8758320270
 H         -5.8224864025        8.9184039700       -3.4968831699
 H         -4.1203993183       10.8122274058       -3.8573926106
 H         -7.6086228881       11.7556458428       -2.1985091266