142
-211.12653152
 C          3.6585916819       -6.6483359188        3.2590965012
 C          3.0931269573       -7.1994074450        1.9542284065
 C         -5.6840795276        2.0252182113        5.0425490490
 C         -6.3603604981        1.5135956601        3.7748577009
 C         -6.3047179861        2.0838335331       -3.7237970605
 C         -6.3288500432        1.2851830778       -5.0229463148
 C          6.4735794902        0.3225810982       -2.5762039968
 C          6.3634488506       -0.4519498434       -3.8855356779
 C          3.6501278107       -5.1243254578        3.2374374268
 C          1.6789951870       -6.6790254655        1.7276903155
 C         -4.2715525965        1.4634397713        5.1548535871
 C         -5.5405010757        1.8882195296        2.5454326814
 C         -6.0220837053        1.1658431267       -2.5400713239
 C         -5.0067805568        0.5529003144       -5.2218955555
 C          5.1751606788        1.0663204763       -2.2882526406
 C          5.1913110481       -1.4248202383       -3.8291628746
 C          0.1986508493       -0.2901864520        3.5517812884
 C         -1.7119915244       -2.3267111943       -0.2444969655
 C         -0.2358947506        0.8283373934       -0.0600014484
 C         -0.7476580803       -1.8395274728       -3.9005065814
 C          2.4318867276       -0.3281297623        2.6515107976
 C         -2.4055471108       -3.8602238110        1.4767716111
 C          1.2059451859        1.7516043354        2.7654892612
 C         -4.0174818936       -2.3788495960        0.4509800527
 C         -1.7087400989        2.6380211348       -0.6579588750
 C         -1.6480712309       -3.9378723218       -3.1340394242
 C          0.4049515191        2.3649698253       -1.7989232356
 C          0.7396752117       -3.5638058869       -3.1168940021
 C          1.3792501649       -2.4470392386        3.3950893880
 C         -0.0341780011       -3.8309781385        0.7593354173
 C         -1.1378276173        1.7908712425        3.5317523906
 C         -3.3112305892       -0.8026628743       -1.3275883351
 C         -2.3710008975        1.0658216233        1.1405559485
 C         -3.2005154958       -2.1316856710       -3.7746471653
 C          1.9417464934        0.5237078110       -1.1794505391
 C          1.6724339988       -1.3832221580       -3.8425440427
 C          1.3428440970       -1.0019414940        3.2112013840
 C         -1.4005595604       -3.3360290600        0.6615583670
 C          0.1147442984        1.0814060332        3.3167336250
 C         -3.0138386338       -1.8442888588       -0.3560722925
 C         -1.4332852162        1.5159871410        0.1227723548
 C         -1.8486036527       -2.6537301283       -3.6383473782
 C          0.6902627681        1.2492249767       -1.0096829412
 C          0.5430043542       -2.2793620756       -3.6315589316
 C          2.3468947199        1.0346373780        2.4500433139
 C         -3.6918550570       -3.3703324285        1.3580295319
 C         -0.7888149404        3.0344763723       -1.6110641834
 C         -0.3565123297       -4.3707998345       -2.8891493473
 C          2.2378555009       -4.5840771889        3.0161489745
 C          1.6534198008       -5.1499254707        1.6953174735
 C         -3.4296243096        1.8461625142        3.9403452947
 C         -4.1244229588        1.3284405314        2.6376473819
 C         -4.6961275599        0.4332329371       -2.7189775866
 C         -4.7148539893       -0.3843682758       -4.0527240520
 C          3.9920313474        0.0993000307       -2.2176899050
 C          3.8806450522       -0.6915707662       -3.5475090178
 Br         3.8339618703        1.9585150818        1.6820513442
 Br        -5.0631804681       -4.0748600181        2.4874805835
 Br        -1.1855710505        4.5519647536       -2.7025638161
 Br        -0.0908194201       -6.1272340276       -2.1834330836
 N          2.2896490375       -3.1595557512        2.8873446110
 N          0.2982741983       -4.7097386904        1.6007491963
 N         -2.1617365949        1.2009946400        3.9853002933
 N         -4.4942263173       -0.4960692642       -1.6543060162
 N         -3.3396040223        1.7784525961        1.5332107417
 N         -3.4150155013       -0.9509265621       -4.1770672596
 N          2.7872672556        0.8486083440       -2.0572082858
 N          2.8237953418       -1.6449802952       -3.3948698546
 H          3.0544538751       -7.0038953957        4.0967834523
 H          4.6799886303       -7.0037582934        3.4052347976
 H          3.0762838628       -8.2899782142        1.9829963084
 H          3.7304910764       -6.8940056937        1.1215779258
 H         -5.6402263382        3.1164628882        5.0180950722
 H         -6.2622205800        1.7304521684        5.9197002253
 H         -6.4590033882        0.4270495475        3.8280722397
 H         -7.3612391703        1.9391544272        3.6871481281
 H         -5.5287258006        2.8503992487       -3.7820604432
 H         -7.2626999978        2.5844384693       -3.5747290705
 H         -6.5040887606        1.9521795960       -5.8685267916
 H         -7.1449551208        0.5597277450       -4.9901934492
 H          7.2949546953        1.0386154109       -2.6315741624
 H          6.6846993583       -0.3696167806       -1.7582303491
 H          7.2855401605       -1.0048034529       -4.0727082440
 H          6.2160453972        0.2476912262       -4.7113027308
 H          4.0309836971       -4.7266425195        4.1804076952
 H          4.2890744609       -4.7547834728        2.4335988589
 H          1.2801253727       -7.0525167325        0.7825403413
 H          1.0192187166       -7.0156533520        2.5288564080
 H         -4.3018084058        0.3747912116        5.2237313422
 H         -3.7793199154        1.8447045668        6.0519099098
 H         -5.4768701322        2.9730589697        2.4468615948
 H         -6.0089999659        1.4931472359        1.6422818958
 H         -6.8155612634        0.4240096057       -2.4361587783
 H         -5.9749798188        1.7427685533       -1.6147930122
 H         -4.1866938992        1.2682869044       -5.3025844728
 H         -5.0320250730       -0.0364418946       -6.1408076232
 H          4.9747868503        1.7963381347       -3.0740166302
 H          5.2429184794        1.6016705135       -1.3392440660
 H          5.3497073567       -2.1613491915       -3.0396235468
 H          5.0942506322       -1.9609786380       -4.7754596553
 H         -0.6579078851       -0.7886754760        3.9784038413
 H         -0.9388812305       -1.9158813930       -0.8784058067
 H         -0.0227670127       -0.0362171695        0.5526904654
 H         -0.9263182665       -0.8495433822       -4.2905745634
 H          3.3145560389       -0.8887325764        2.3882970907
 H         -2.1539025292       -4.6393749343        2.1780279247
 H          1.1564837626        2.8135636727        2.5775430080
 H         -5.0229614475       -2.0020051835        0.3540306102
 H         -2.6357125999        3.1668862118       -0.5049053840
 H         -2.4901360588       -4.5809829260       -2.9268879035
 H          1.1266531377        2.6800186636       -2.5351821996
 H          1.7443700367       -3.8952297951       -2.9085197587
 H          0.5514654736       -2.8741189544        3.9780958567
 H          0.6840074448       -3.3890787668        0.0507206351
 H         -1.1525053141        2.8485030033        3.2306152362
 H         -2.4338056096       -0.3055203156       -1.7663287131
 H         -2.1733371047        0.0652781272        1.5522838076
 H         -4.0125281693       -2.8033690575       -3.4601531918
 H          2.1005018281       -0.3200178124       -0.4894169825
 H          1.4494273765       -0.4577173349       -4.3912771888
 H          1.5662241278       -4.8967402110        3.8335696705
 H          2.2690308354       -4.7691893089        0.8614991549
 H         -3.3389960376        2.9427023854        3.8521988428
 H         -4.1398685135        0.2279783020        2.7040799350
 H         -3.8599506547        1.1474833193       -2.7984559833
 H         -5.5001416860       -1.1541459143       -3.9572358271
 H          4.1350328975       -0.6293710530       -1.4004905748
 H          3.6604361971        0.0374662912       -4.3455378879
 C          8.6388657517       12.6130959997        0.9782362586
 C          8.0391736777       11.2076865117        1.0570160996
 O          8.2875404140       13.3703186839        2.1244471772
 C          8.7110838715       12.7127120471        3.3069714164
 C          8.1100976839       11.3078866032        3.3855532504
 O          8.4625924334       10.5506881609        2.2400246165
 H          8.2442296417       13.1578774405        0.1204722216
 H          6.9416348064       11.2746926316        1.0466868800
 H          9.8085373093       12.6440144706        3.3163102094
 H          7.0150315162       11.3797244064        3.4559406897
 H          8.3815852207       10.5903181981        0.2264352223
 H          8.3700406419       13.3301591241        4.1380893689
 H          8.5028443176       10.7628659175        4.2440672400
 H          9.7338533850       12.5423352604        0.9063012989