142
-211.12672135
 C          2.4728121876       -6.5965749072        2.9931278102
 C          1.6964641347       -6.7547661021        1.6898015586
 C         -2.4343079004        4.9789948370        5.9023003429
 C         -3.3019685074        4.8805766237        4.6517265335
 C         -3.1958264961        5.9072354839       -2.9898265381
 C         -3.5959156615        5.2645411420       -4.3139242571
 C          7.6374925639       -1.2087196961       -2.3612176645
 C          7.1993012622       -1.7577447167       -3.7150438370
 C          3.0918307859       -5.2061332407        3.0758611683
 C          0.6195194575       -5.6823206485        1.5789981886
 C         -1.3802948794        3.8777025686        5.9069558032
 C         -2.4401736170        4.9628972834        3.3968061385
 C         -3.2830442087        4.8906713170       -1.8570655271
 C         -2.7085506443        4.0610572770       -4.6106826690
 C          6.7847856554       -0.0064835881       -1.9746178644
 C          5.7237532204       -2.1386145138       -3.6800182781
 C          1.9261290335        0.5644489242        3.9367721141
 C         -0.7321313283       -0.2006943617        0.0476258171
 C          1.8424819338        1.9414512663        0.4667454583
 C          0.1779468929        0.0159999191       -3.5715728686
 C          3.9284136542       -0.2981227898        2.9132398050
 C         -1.9349298734       -1.4227278045        1.7372655864
 C          3.6597294094        2.0817239373        3.2334267375
 C         -2.8262772142        0.6532518648        0.8762190470
 C          1.2660510143        4.2379310505        0.0256574972
 C         -1.5240599589       -1.5406593005       -2.8776793003
 C          3.0340696681        3.1667858880       -1.2284456398
 C          0.7932853232       -2.2233414471       -2.9333149386
 C          2.1194937682       -1.8639656632        3.5612596285
 C          0.2103256932       -2.3215491496        0.8830471208
 C          1.5556084502        3.0038557725        4.1257246476
 C         -1.5960806650        1.9099991212       -0.8721874595
 C          0.0449040385        2.9834398395        1.7822113505
 C         -2.1630136392        0.7897349561       -3.3632854987
 C          3.6509436589        0.8105879369       -0.7718399837
 C          2.5619078956       -0.6066402372       -3.5705422488
 C          2.6721502239       -0.5178122895        3.4847354260
 C         -0.8328138553       -1.3049900271        0.8884068054
 C          2.4034740929        1.8670874338        3.7988243262
 C         -1.7210194171        0.7800002906        0.0355508885
 C          1.0562951466        3.0584140420        0.7390520874
 C         -1.1620801440       -0.2653341206       -3.3093988360
 C          2.8349075178        1.9878046779       -0.5076348472
 C          1.1592924645       -0.9480830128       -3.3724429081
 C          4.4020861651        0.9938910787        2.8088465447
 C         -2.9074954534       -0.4416031872        1.7167908118
 C          2.2450225306        4.2662989286       -0.9504795282
 C         -0.5398902230       -2.4980594229       -2.7056833025
 C          2.0207785226       -4.1208347624        2.9749887214
 C          1.2287200710       -4.2808296457        1.6513344627
 C         -0.4958688726        3.9596361438        4.6654825558
 C         -1.3861512325        3.8603853751        3.3825789246
 C         -2.3912694350        3.6847583310       -2.1347386774
 C         -2.7981453148        3.0244231737       -3.4936959178
 C          5.3014334129       -0.3776505062       -1.9250999219
 C          4.8552522786       -0.9402193719       -3.2996954831
 Br         6.1180132749        1.2974962963        2.0248763130
 Br        -4.4070718857       -0.5949379310        2.8913484577
 Br         2.5062271509        5.8740698694       -1.9498916472
 Br        -1.0433077733       -4.2393750012       -2.1008377003
 N          2.6472858166       -2.8341398891        2.9491700949
 N          0.1760982619       -3.3159996121        1.6579499412
 N          0.3947954155        2.8507647404        4.6066429987
 N         -2.5559300344        2.6966918674       -1.1173388277
 N         -0.5223595779        4.0101595680        2.2557620597
 N         -1.8650373165        1.9708937962       -3.7071989898
 N          4.5357996848        0.8003889662       -1.6704402468
 N          3.4928627905       -1.3601075227       -3.1703908801
 H          1.7983045192       -6.7453134554        3.8392826187
 H          3.2607699375       -7.3491602449        3.0538280344
 H          1.2296315613       -7.7400721359        1.6483464431
 H          2.3817147807       -6.6707287044        0.8435074966
 H         -1.9415236686        5.9536186114        5.9286529342
 H         -3.0548118155        4.8906014493        6.7954957661
 H         -3.8434706989        3.9319452225        4.6583770922
 H         -4.0360799944        5.6877732739        4.6417942759
 H         -2.1726214367        6.2827853253       -3.0622124920
 H         -3.8505023502        6.7523324249       -2.7712996300
 H         -3.5058497963        5.9899593005       -5.1240054543
 H         -4.6387511767        4.9431173116       -4.2628842977
 H          8.6861867985       -0.9099583695       -2.3988022464
 H          7.5356857700       -1.9861489380       -1.6009105024
 H          7.7947676126       -2.6346603633       -3.9746162930
 H          7.3611916439       -1.0000716746       -4.4849757174
 H          3.6267123244       -5.0814942583        4.0196362970
 H          3.8053829348       -5.0616579147        2.2628787479
 H          0.0793838769       -5.7782837823        0.6351771114
 H         -0.1015215246       -5.7846069254        2.3914615805
 H         -1.8578263389        2.8967065917        5.9262877278
 H         -0.7452997610        3.9613974752        6.7913537668
 H         -1.9322320556        5.9273533131        3.3466526663
 H         -3.0591649627        4.8597119174        2.5037842767
 H         -4.3099228440        4.5414712132       -1.7375392056
 H         -2.9679023992        5.3432390063       -0.9152109656
 H         -1.6675943461        4.3734105348       -4.7087369888
 H         -3.0086263629        3.5878671339       -5.5479170938
 H          6.9126263035        0.7975147809       -2.7010452046
 H          7.0809350119        0.3740916179       -0.9952453399
 H          5.5557301705       -2.9310028257       -2.9486942585
 H          5.4011084715       -2.5070299149       -4.6559920512
 H          0.9509300918        0.4209942770        4.3756649234
 H          0.1177396484       -0.1044095951       -0.6131770888
 H          1.6839534577        1.0321879786        1.0291519409
 H          0.4363002111        1.0095698022       -3.9036391244
 H          4.4995118784       -1.1439286511        2.5652837872
 H         -2.0029962575       -2.2803004741        2.3869801023
 H          4.0425601148        3.0847032533        3.1191866956
 H         -3.5890524648        1.4149575216        0.8559723607
 H          0.6562842025        5.0990678408        0.2469798349
 H         -2.5575828710       -1.7735862301       -2.6700484450
 H          3.8032330123        3.1924676335       -1.9833745398
 H          1.5615101398       -2.9644202151       -2.7807913199
 H          1.2032322025       -1.9706042600        4.1582856945
 H          1.0243792107       -2.1635693032        0.1578054868
 H          1.9641781878        3.9954212046        3.8816903936
 H         -0.6080281886        2.0268864037       -1.3410925184
 H         -0.1845487419        1.9689725099        2.1401050933
 H         -3.1754394816        0.5108330611       -3.0364008196
 H          3.4450924719       -0.0634105456       -0.1335249143
 H          2.7531184072        0.3582431978       -4.0602631952
 H          1.2976531277       -4.2064930306        3.8036513507
 H          1.9299499869       -4.1188327675        0.8138018968
 H          0.0362603767        4.9258821707        4.6234575113
 H         -1.8587660893        2.8645288526        3.4030894388
 H         -1.3370387529        3.9910072860       -2.2363691620
 H         -3.8313660420        2.6518142704       -3.3832399738
 H          5.1219757700       -1.1573812626       -1.1639783079
 H          4.9638545933       -0.1281733298       -4.0384162602
 C        -11.7773937296       -7.7859674701       -3.5845433672
 C        -11.4983927623       -8.5735338478       -2.3027611965
 O        -10.9558856014       -6.6320998053       -3.6497168970
 C         -9.5859764635       -6.9892162927       -3.5713552749
 C         -9.3075286623       -7.7761982299       -2.2891636657
 O        -10.1284219786       -8.9303090486       -2.2253001371
 H        -12.8070207339       -7.4286877191       -3.6064623886
 H        -11.7689117165       -7.9625591440       -1.4294216688
 H         -9.3153203070       -7.6007869792       -4.4442710047
 H         -9.5029228378       -7.1372605029       -1.4157908757
 H        -12.0582486168       -9.5087541528       -2.2901994209
 H         -9.0256329593       -6.0543140699       -3.5843201658
 H         -8.2774891294       -8.1321996060       -2.2660561979
 H        -11.5832999374       -8.4247826121       -4.4583105518