142
-211.13033829
 C          1.0211708616       -6.6922781024        2.7187625125
 C          0.1347672675       -6.7337033442        1.4782097842
 C         -2.4911299702        5.2996841350        6.1173726732
 C         -3.4492803093        5.2943322805        4.9304628192
 C         -3.6792390883        6.3764144793       -2.8360050343
 C         -4.2556163785        5.7899568739       -4.1208541236
 C          6.0389429948       -2.2639500647       -2.6641458899
 C          5.4599541852       -2.7646025020       -3.9834413962
 C          1.7768076623       -5.3702420607        2.7827899980
 C         -0.8406235429       -5.5630659658        1.4863021971
 C         -1.5628031104        4.0916641496        6.0595704562
 C         -2.6731695249        5.2797039179        3.6182091698
 C         -3.8139445910        5.3821329394       -1.6880366049
 C         -3.5626225866        4.4767197571       -4.4666528265
 C          5.3965480427       -0.9391371024       -2.2709727331
 C          3.9467014479       -2.9134316520       -3.8754631607
 C          1.2547547701        0.4575666162        3.8577647862
 C         -1.7458754743        0.0226245771        0.0577223591
 C          0.9846694591        1.7318849042        0.4428030584
 C         -1.2025462224        0.0551733460       -3.5600868455
 C          3.0817270807       -0.5746304256        2.6747589722
 C         -2.9151940822       -1.0472822529        1.8690338373
 C          3.0691187428        1.8135043511        3.0376249291
 C         -3.6428340243        1.1137040978        1.0624795631
 C          0.6719788907        4.0755278238       -0.0127127404
 C         -3.0673763771       -1.2280668218       -2.7364401011
 C          2.1763519942        2.7619332681       -1.3771075803
 C         -0.8832470358       -2.2442961502       -2.9163973058
 C          1.1805634292       -1.9706136778        3.4308051894
 C         -0.9668251704       -2.1819119362        0.8352703981
 C          1.1361432437        2.9206479093        4.0856670509
 C         -2.4371557475        2.2155653527       -0.8063210923
 C         -0.5555679410        3.0120332606        1.8645283405
 C         -3.3880418132        1.1660012053       -3.2165123581
 C          2.5114269594        0.3490783576       -0.9078297211
 C          1.0629783923       -0.9125674175       -3.6727119731
 C          1.8561598327       -0.6826801647        3.3375206726
 C         -1.8901131231       -1.0588030076        0.9214187434
 C          1.8439062631        1.7107666582        3.6953066026
 C         -2.6126098241        1.1106171551        0.1229640253
 C          0.3719857468        2.9450055708        0.7462708216
 C         -2.5504280204       -0.0237628417       -3.2123092373
 C          1.8876345504        1.6311343721       -0.6111583700
 C         -0.3625659279       -1.0405399914       -3.3991466903
 C          3.6691674373        0.6673954612        2.5473881486
 C         -3.7695348168        0.0374734428        1.9215438348
 C          1.5628325503        3.9599043584       -1.0640695424
 C         -2.2256555452       -2.3183996519       -2.6061843952
 C          0.8113496180       -4.1856758070        2.7916772156
 C         -0.0874297373       -4.2322781013        1.5295085778
 C         -0.7651329220        4.0761923296        4.7582482910
 C         -1.7520531833        4.0663759449        3.5442830047
 C         -3.1094688997        4.0706261627       -2.0191740859
 C         -3.7075911809        3.4658587291       -3.3321100249
 C          3.8781988171       -1.0832956174       -2.1472611276
 C          3.2909843001       -1.5879136980       -3.4902046316
 Br         5.3404661383        0.8189598965        1.6347139551
 Br        -5.1632403178        0.0590741964        3.2284289576
 Br         1.9463283886        5.5035058014       -2.1228671280
 Br        -2.9396912543       -3.9609385788       -1.9416011167
 N          1.5560189829       -2.9642695921        2.7482992538
 N         -1.0292193669       -3.1626997493        1.6257097929
 N          0.0020366448        2.8818550191        4.6465971141
 N         -3.3104107966        3.1146195662       -0.9772350539
 N         -0.9646391116        4.1047240214        2.3532785729
 N         -2.9504186237        2.2901311611       -3.5999949224
 N          3.3073735984        0.1972236709       -1.8743295021
 N          1.8877922734       -1.7915027515       -3.2969754369
 H          0.4041224114       -6.8030703268        3.6135817933
 H          1.7353547178       -7.5171452039        2.6969510277
 H         -0.4252680101       -7.6698097427        1.4479807899
 H          0.7575341566       -6.6778289249        0.5831830361
 H         -1.8961327352        6.2157587538        6.1013853702
 H         -3.0540828112        5.2796328600        7.0518932457
 H         -4.0887939393        4.4103294035        4.9831272417
 H         -4.0903574869        6.1766478835        4.9640316364
 H         -2.6240074763        6.6153495729       -2.9864054530
 H         -4.2009026772        7.3000350458       -2.5803305122
 H         -4.1269060542        6.4950572297       -4.9436058206
 H         -5.3259231905        5.6126668331       -3.9925930867
 H          7.1178496138       -2.1289689018       -2.7546843439
 H          5.8557718041       -3.0029573156       -1.8809821097
 H          5.9039937267       -3.7262101798       -4.2466841687
 H          5.6989305250       -2.0547665875       -4.7785620849
 H          2.3942912896       -5.3247684042        3.6823928398
 H          2.4321105894       -5.2709570251        1.9160423971
 H         -1.4681832020       -5.5802626828        0.5934287368
 H         -1.4948190672       -5.6178223677        2.3581340533
 H         -2.1394626526        3.1674279104        6.1225039826
 H         -0.8616676167        4.1097288061        6.8965035437
 H         -2.0666424894        6.1819221032        3.5243845052
 H         -3.3599641706        5.2445468636        2.7706354429
 H         -4.8657034477        5.1703965238       -1.4888956214
 H         -3.3732226890        5.7909729614       -0.7770420188
 H         -2.4994298625        4.6451275726       -4.6454820161
 H         -3.9932438346        4.0459616826       -5.3729524784
 H          5.6093810204       -0.1769311513       -3.0221053384
 H          5.7933003708       -0.5895415753       -1.3160077158
 H          3.6911029347       -3.6519685090       -3.1136335490
 H          3.5264423141       -3.2473326570       -4.8266107189
 H          0.3055215257        0.4001469896        4.3676093874
 H         -0.9561638248        0.0173119500       -0.6801071914
 H          0.7600044453        0.8602295779        1.0409348010
 H         -0.8222448757        0.9967615400       -3.9248072622
 H          3.5397036386       -1.4649963754        2.2747731376
 H         -3.0188340294       -1.8881307794        2.5357597935
 H          3.5366563201        2.7773052513        2.9031303755
 H         -4.3128723120        1.9573837528        1.1023907025
 H          0.1978989339        5.0121906040        0.2328012055
 H         -4.1088130013       -1.3039627748       -2.4621604166
 H          2.8752384197        2.6752234807       -2.1933846229
 H         -0.2218697818       -3.0867588841       -2.7925125360
 H          0.3107082574       -2.0081495839        4.1010668950
 H         -0.2130769714       -2.1148836665        0.0345714648
 H          1.6207975426        3.8690792769        3.8106154097
 H         -1.4880834693        2.2090408681       -1.3625995242
 H         -0.8713761756        2.0375209717        2.2654378585
 H         -4.4032285095        1.0395011223       -2.8123922351
 H          2.2410791864       -0.4759927365       -0.2296048078
 H          1.3718579192        0.0062390909       -4.1899475484
 H          0.1472392619       -4.2269152376        3.6718111671
 H          0.5627044139       -4.1308067220        0.6427996948
 H         -0.1407618360        4.9822282290        4.6684512092
 H         -2.3302250121        3.1306082780        3.6169980091
 H         -2.0371565362        4.2397069252       -2.2112186516
 H         -4.7708725613        3.2414430980       -3.1377820141
 H          3.6226146152       -1.8207935470       -1.3656885298
 H          3.4912737644       -0.8140645215       -4.2504400897
 C          3.7937458902       -7.8722917115       -2.9405187438
 C          3.2532614962       -7.6075032394       -1.5339793529
 O          2.8084257064       -8.4977254630       -3.7454121651
 C          1.6344999651       -7.7047619563       -3.8018078152
 C          1.0924142175       -7.4484778587       -2.3951401429
 O          2.0756402960       -6.8189792878       -1.5891003553
 H          4.6412204477       -8.5571451670       -2.9081310205
 H          3.0301110600       -8.5640541126       -1.0399654503
 H          1.8611003432       -6.7459816375       -4.2906260694
 H          0.7979512347       -8.4026258597       -1.9355750142
 H          3.9733609501       -7.0427500597       -0.9414725760
 H          0.9151472650       -8.2649530375       -4.3991301128
 H          0.2377343464       -6.7731802589       -2.4234756440
 H          4.0973694140       -6.9234280135       -3.4052762725