142
-211.12950807
 C          1.4310884967       -6.9645993134        2.8539733730
 C          0.5682152262       -7.1702408903        1.6131015081
 C         -3.6131837474        4.5299559002        5.9731125071
 C         -4.5894621145        4.3582085086        4.8137320808
 C         -5.0582866389        5.1596549718       -3.0604635562
 C         -5.5480297648        4.4633050278       -4.3262156297
 C          5.8720358096       -1.7646002753       -2.7894782353
 C          5.3874604900       -2.3574960275       -4.1083754755
 C          2.0063756986       -5.5530625199        2.8729176581
 C         -0.5494119980       -6.1354288101        1.5648141847
 C         -2.5284706038        3.4599809027        5.9197632960
 C         -3.8499546175        4.4155978237        3.4817408141
 C         -5.0390027262        4.1835942285       -1.8895272481
 C         -4.6685257081        3.2603456758       -4.6482729762
 C          5.0075057927       -0.5733033516       -2.3965390756
 C          3.9235031470       -2.7702498434       -4.0010091090
 C          0.7106757614        0.1865963651        3.7439645388
 C         -2.2074249597       -0.7699534170       -0.0203866916
 C          0.2293956945        1.3715100647        0.2972316533
 C         -1.6537594919       -0.7137922108       -3.6717579476
 C          2.6568138486       -0.6239454678        2.5788699569
 C         -3.2154281633       -1.9416433652        1.8252404234
 C          2.3229451785        1.7506053005        2.8739764868
 C         -4.2387138959        0.0719353826        0.9622033395
 C         -0.4600480434        3.6242293463       -0.2025621191
 C         -3.2832746474       -2.2599660377       -2.8025697371
 C          1.2192222445        2.5376649498       -1.5614292317
 C         -0.9664329984       -2.9195819853       -2.9914379878
 C          0.9627928666       -2.2404094700        3.3900885157
 C         -1.1295417639       -2.8227131845        0.8167585036
 C          0.2636479746        2.6159453433        3.9121746055
 C         -3.2052765501        1.2783359588       -0.9424525932
 C         -1.4713787612        2.4290606904        1.7214365051
 C         -3.9834141442        0.0443425064       -3.3263532188
 C          1.9495218718        0.2253894026       -1.0458108881
 C          0.7352065668       -1.3039730452       -3.7917104742
 C          1.4586547984       -0.8770172403        3.2521511096
 C         -2.1993353502       -1.8361883222        0.8737365587
 C          1.1249208085        1.5026132527        3.5428051367
 C         -3.2190214632        0.1862637290        0.0180795277
 C         -0.5643196400        2.4786958876        0.5854728800
 C         -2.9688148955       -0.9987506576       -3.3069791597
 C          1.1256336884        1.3935105654       -0.7669961212
 C         -0.6480516784       -1.6580965045       -3.5015450661
 C          3.0710861004        0.6818559323        2.4133653460
 C         -4.2130091975       -0.9860281134        1.8521296862
 C          0.4233997757        3.6279334143       -1.2662306348
 C         -2.2772176921       -3.1996788625       -2.6631659454
 C          0.8939120369       -4.5060241752        2.8324157511
 C          0.0182090550       -4.7145380338        1.5702904581
 C         -1.7666328486        3.5187848010        4.5982717821
 C         -2.7697580334        3.3410803293        3.4112535114
 C         -4.1478144698        2.9843585120       -2.1959298658
 C         -4.6540659476        2.2658514897       -3.4902145766
 C          3.5361057820       -0.9747745915       -2.2743373187
 C          3.0449631917       -1.5818071518       -3.6131674381
 Br         4.7062544164        1.0310443725        1.4887004241
 Br        -5.5938646094       -1.1216031971        3.1658994272
 Br         0.5400467386        5.1874089070       -2.3641632456
 Br        -2.7132912859       -4.9203222659       -1.9557004493
 N          1.4713819433       -3.1991064356        2.7446204359
 N         -1.0609651563       -3.7814935009        1.6331407117
 N         -0.8452893116        2.4379628173        4.4956867267
 N         -4.2011578053        2.0352588645       -1.1305408836
 N         -2.0209725078        3.4622100700        2.2012481109
 N         -3.7279907216        1.2135257977       -3.7386119357
 N          2.7567623001        0.1929137342       -2.0141443687
 N          1.6989098986       -2.0243403714       -3.4087186208
 H          0.8252103460       -7.1223077639        3.7489813818
 H          2.2469344573       -7.6892943788        2.8672235485
 H          0.1329421854       -8.1707227614        1.6205702197
 H          1.1872251554       -7.0788478697        0.7179017407
 H         -3.1511447203        5.5183278609        5.9172507387
 H         -4.1452027929        4.4597450188        6.9231691992
 H         -5.0973519885        3.3954642579        4.9052433193
 H         -5.3468100437        5.1431215604        4.8435473156
 H         -4.0507278246        5.5481101360       -3.2252370948
 H         -5.7095188240        6.0019007965       -2.8215757304
 H         -5.5308012558        5.1596742239       -5.1660729139
 H         -6.5791002276        4.1314579608       -4.1839536428
 H          6.9088143946       -1.4380848816       -2.8804606068
 H          5.8197570155       -2.5251877070       -2.0069423689
 H          5.9913960258       -3.2270592936       -4.3727798782
 H          5.4997527806       -1.6158967013       -4.9021489188
 H          2.6014004801       -5.3954510325        3.7748540884
 H          2.6559171169       -5.3983565990        2.0096773966
 H         -1.1537071051       -6.2659390468        0.6650724977
 H         -1.2056149393       -6.2460410526        2.4294560686
 H         -2.9703981987        2.4673425854        6.0200371457
 H         -1.8173340635        3.5970911254        6.7369952850
 H         -3.3777359851        5.3905178019        3.3503419125
 H         -4.5445060150        4.2623077886        2.6537639987
 H         -6.0466752641        3.8217484150       -1.6788180612
 H         -4.6617568270        4.6743207758       -0.9905222096
 H         -3.6434058024        3.5814505090       -4.8400502224
 H         -5.0345384485        2.7488866407       -5.5409120616
 H          5.0881739328        0.2140562549       -3.1472686528
 H          5.3346665084       -0.1613571769       -1.4402863910
 H          3.8048324184       -3.5473207370       -3.2438608643
 H          3.5681701774       -3.1705066981       -4.9528699379
 H         -0.2198892213        0.0168770229        4.2630711212
 H         -1.4248559047       -0.6848187005       -0.7609918991
 H          0.1535587706        0.4889663064        0.9164581123
 H         -1.4317082783        0.2688678022       -4.0581402528
 H          3.2302555421       -1.4554919584        2.2017646806
 H         -3.1997177600       -2.7696979318        2.5154072401
 H          2.6561751418        2.7642540031        2.7095373129
 H         -5.0199320970        0.8147234422        0.9809851496
 H         -1.0744601692        4.4785142315        0.0317962375
 H         -4.2967077599       -2.4952784076       -2.5141749933
 H          1.9142645499        2.5451210860       -2.3854968286
 H         -0.1796012093       -3.6453306718       -2.8620573564
 H          0.1026221006       -2.3706123146        4.0611340740
 H         -0.3888771997       -2.6733513227        0.0149770033
 H          0.6103151373        3.6134376547        3.6042622308
 H         -2.2664204445        1.3948559789       -1.5036279146
 H         -1.6363473196        1.4270084465        2.1442166393
 H         -4.9632827471       -0.2297066795       -2.9085709443
 H          1.8205820593       -0.6219388767       -0.3533306102
 H          0.8833949618       -0.3558961119       -4.3268624159
 H          0.2338862926       -4.6023854214        3.7110556326
 H          0.6536172867       -4.5484485056        0.6822892427
 H         -1.2748182612        4.4989369897        4.4708557930
 H         -3.2088815424        2.3356458545        3.5181110697
 H         -3.1133382293        3.3063319056       -2.3995822862
 H         -5.6700497176        1.8875069174       -3.2822875511
 H          3.4078356518       -1.7379499192       -1.4861083838
 H          3.1027707078       -0.7874008208       -4.3762547354
 C         10.3072004956       -0.9512748112       -2.4442363550
 C         10.5983376992       -1.5749029746       -1.0777745151
 O          9.0259994832       -0.3440803976       -2.4510483120
 C          8.9288098481        0.6315970077       -1.4257458783
 C          9.2231383135        0.0078906784       -0.0606532389
 O         10.5056178947       -0.5978744477       -0.0549722198
 H         10.2888391292       -1.7124315390       -3.2244867548
 H          9.8777537597       -2.3819450649       -0.8809973373
 H          9.6454108551        1.4416597994       -1.6223904654
 H          8.4592563804       -0.7470643439        0.1723598310
 H         11.6151800973       -1.9656018005       -1.0362364670
 H          7.9105406388        1.0172691777       -1.4636852286
 H          9.2382382294        0.7694336221        0.7187314122
 H         11.0727451330       -0.1965660790       -2.6746563399