142
-211.12833039
 C         -4.1565251599       -6.8841643226        2.6724856705
 C         -2.9568283880       -7.8114919233        2.5025534748
 C         -5.5170609697        5.4392698323        1.5372336753
 C         -6.0551945727        5.3290058697        0.1155963805
 C          6.6847156331        0.5959986002        4.7128184067
 C          5.7960555104        1.8242099630        4.8855157751
 C          5.3477637252        5.3243712894       -5.8849841978
 C          6.2176717995        4.1167598758       -5.5504671175
 C         -3.7144372593       -5.5264215584        3.2079947317
 C         -1.9181624244       -7.1804701725        1.5813512589
 C         -4.8619175379        4.1283193292        1.9523994904
 C         -4.9290374844        4.9665118718       -0.8437933895
 C          5.8741101763       -0.5840555568        4.1872223349
 C          5.1134062175        2.1820364099        3.5695702754
 C          3.8967363505        4.8991934369       -6.0800272558
 C          5.6945250206        3.4116327428       -4.3041067658
 C         -2.2302541200       -0.1103449688        2.1340543894
 C          2.3893827407       -3.0985807186        1.3746259840
 C         -1.0211086952        3.1251801111       -3.2106555264
 C          2.6408167780        1.2334294387       -0.8964239748
 C         -0.8290476334       -1.3257888618        3.6696031610
 C          1.1698445449       -3.8282468869       -0.5728152719
 C         -0.6911837087        1.0813387262        3.5530465432
 C          3.0457093347       -2.3247683618       -0.8087946653
 C         -2.4732280401        1.5924809597       -4.3700206309
 C          0.7435386113        0.0905587900        0.0513734957
 C         -0.3606679978        2.2326032142       -5.3493743938
 C          0.8985966593        0.3942931803       -2.3365010745
 C         -2.3506023112       -2.5787052897        2.1791368782
 C          0.4551131394       -4.5956535768        1.6705159725
 C         -2.1509299353        2.3682472306        2.0461015165
 C          4.2294548783       -1.4443079192        1.1504581071
 C         -3.2377136906        2.5593397819       -2.2418468250
 C          2.5652869577        0.7550120422        1.5437258551
 C          1.1936706556        3.7159242880       -4.1270186036
 C          2.8070638704        1.5476685812       -3.3575164008
 C         -1.8044087162       -1.3202885802        2.6706217103
 C          1.3593813675       -3.8444900638        0.8116308113
 C         -1.6819188725        1.0932635863        2.5724665601
 C          3.2292069099       -2.3284277888        0.5735642781
 C         -2.2195529447        2.4166561519       -3.2740597632
 C          1.9713116183        0.7337567361        0.2170863312
 C         -0.0880590496        3.0350083626       -4.2377592881
 C          2.1184987715        1.0527401745       -2.1732085229
 C         -0.2960572812       -0.1275787946        4.0948151153
 C          2.0193790691       -3.0737383120       -1.3549825268
 C         -1.5427936534        1.5220580973       -5.3920914729
 C          0.2225544520       -0.0516890617       -1.2185856373
 C         -2.6886055790       -4.8871956074        2.2697285075
 C         -1.4663846273       -5.8273742455        2.1271853234
 C         -3.7214564965        3.7447112022        0.9973841543
 C         -4.2511907862        3.6479365206       -0.4422966879
 C          5.2091547146       -0.2331428956        2.8601727128
 C          4.2788489413        1.0086354257        3.0682937180
 C          3.3558918907        4.2067271527       -4.8315170822
 C          4.2471410756        2.9676697283       -4.4941985379
 Br         1.0241674395       -0.1362504938        5.4656160507
 Br         1.7598571266       -3.0256919761       -3.2490966740
 Br        -1.9077419117        0.4053015320       -6.9055986768
 Br        -1.4587077928       -0.9141402139       -1.4335867441
 N         -2.2139797918       -3.6560618561        2.8228301331
 N         -0.5537273943       -5.2044270095        1.2177499247
 N         -3.2338223915        2.4614495536        1.4059711662
 N          4.3798804201       -1.2985957746        2.3992051054
 N         -3.1575928525        3.4446042247       -1.3454333438
 N          3.6834014053        1.2883742072        1.8021850889
 N          2.0429544828        3.7057131253       -5.0651765735
 N          3.7362325602        2.4032130629       -3.2863235999
 H         -4.6505317309       -6.7488295634        1.7077998206
 H         -4.8772552121       -7.3285097083        3.3612097085
 H         -3.2805136700       -8.7668841961        2.0861893761
 H         -2.5056651436       -8.0048290093        3.4785382995
 H         -4.7834529740        6.2468622939        1.5884228302
 H         -6.3274493892        5.6735046082        2.2297265042
 H         -6.8301173450        4.5603629981        0.0771218645
 H         -6.5020759322        6.2759261239       -0.1923060239
 H          7.4892503554        0.8246627178        4.0097916224
 H          7.1384252846        0.3280295565        5.6683220250
 H          6.3928761093        2.6707106791        5.2294360639
 H          5.0342866598        1.6169222117        5.6403089779
 H          5.7105858380        5.8061868367       -6.7945131202
 H          5.4065321787        6.0514531457       -5.0717297966
 H          7.2487585136        4.4335142481       -5.3843906899
 H          6.2106042756        3.4195704798       -6.3914243357
 H         -4.5714296640       -4.8557668598        3.3002458109
 H         -3.2631121456       -5.6365261560        4.1955610310
 H         -1.0465147023       -7.8312390255        1.4872979637
 H         -2.3351056821       -7.0298887175        0.5843366644
 H         -5.5982811373        3.3223343442        1.9462983552
 H         -4.4563668037        4.2072927988        2.9638319285
 H         -4.1707949072        5.7519917745       -0.8485695439
 H         -5.3116273497        4.8638524016       -1.8616267624
 H          5.0976997552       -0.8601334815        4.9019869070
 H          6.5198678108       -1.4513157959        4.0356521159
 H          5.8541570372        2.4374534049        2.8101888468
 H          4.4574573716        3.0441243153        3.7050084888
 H          3.8132232290        4.2092082413       -6.9211817708
 H          3.2710229055        5.7681395161       -6.2940471767
 H          5.7404248636        4.0791681805       -3.4421392145
 H          6.3018442742        2.5321235817       -4.0814576804
 H         -2.9926974374       -0.0816021728        1.3714669103
 H          2.5505003928       -3.0863733556        2.4413200902
 H         -0.8369140349        3.7459903727       -2.3478389320
 H          3.5835287747        1.7397728770       -0.7705665967
 H         -0.5111232511       -2.2678658824        4.0860744381
 H          0.3587215470       -4.3983236367       -0.9964955447
 H         -0.2524907679        2.0059510657        3.8979411248
 H          3.6863198839       -1.7287487313       -1.4412394848
 H         -3.3878207148        1.0219427681       -4.4235830763
 H          0.2133143592       -0.3005319316        0.9063719228
 H          0.3640696484        2.1793708961       -6.1458086331
 H          0.4907976430        0.2384235680       -3.3232341623
 H         -2.8721041783       -2.5275648082        1.2134685563
 H          0.6961971122       -4.5758108023        2.7427992743
 H         -1.5226119591        3.2430364083        2.2736399970
 H          4.8190928895       -0.8662364941        0.4233838307
 H         -4.0993425138        1.8815054445       -2.3231756060
 H          1.9920429886        0.2156626574        2.3129613377
 H          1.3849342386        4.2169403956       -3.1668717636
 H          2.4542890206        1.1391627625       -4.3147598741
 H         -3.1312620288       -4.7388154242        1.2694022061
 H         -1.0213829410       -5.9444002062        3.1308557004
 H         -2.9316237092        4.5150062130        1.0350968773
 H         -4.9819187382        2.8219866656       -0.4909522963
 H          5.9633090440        0.0520520031        2.1064965866
 H          3.5264504073        0.7205625770        3.8207001165
 H          3.3930113517        4.8836246792       -3.9600457733
 H          4.1586787938        2.2698415686       -5.3434576766
 C         -4.7859575618       -1.3419075495        5.6641528970
 C         -3.3166373616       -1.3957342999        6.0817558508
 O         -5.4589825630       -0.2876834842        6.3302570617
 C         -4.8229957158        0.9520303551        6.0736713775
 C         -3.3557707488        0.8990126675        6.5004376891
 O         -2.6799673793       -0.1521078593        5.8295506198
 H         -5.3028192485       -2.2593434196        5.9452713518
 H         -3.2443331125       -1.6308646707        7.1531470382
 H         -4.8855667437        1.1822607611        5.0002098253
 H         -3.2922852504        0.7410947294        7.5865386069
 H         -2.7786155725       -2.1404276021        5.4955120246
 H         -5.3691366476        1.7000270442        6.6485285864
 H         -2.8377625244        1.8190725446        6.2290630421
 H         -4.8514584563       -1.1918598210        4.5768219745