142
-211.13317216
 C          3.1939292102       -6.6025658060        2.8749169502
 C          2.4073505186       -6.8529326151        1.5921737217
 C         -3.3474368707        4.0791128806        5.8235262337
 C         -4.1880617602        3.8211691922        4.5770868438
 C         -4.2458172132        4.8454751115       -3.2666394913
 C         -4.5562311354        4.1088720887       -4.5658037888
 C          7.4316126737       -0.9047610103       -2.3589210536
 C          7.0748483933       -1.5258658788       -3.7055641622
 C          3.6268726619       -5.1431505895        2.9563341248
 C          1.1966644520       -5.9300499562        1.5205555457
 C         -2.1308335071        3.1605357122        5.8466312881
 C         -3.3483244137        4.0140352806        3.3192547321
 C         -4.1852249529        3.8657438301       -2.1000430010
 C         -3.5127177528        3.0290593336       -4.8296226217
 C          6.4370726900        0.1925070618       -1.9994943760
 C          5.6551083017       -2.0799719651       -3.6746514904
 C          1.6670302831        0.3941561312        3.9062608762
 C         -0.9190577689       -0.7469676994       -0.0751531317
 C          1.3115042840        1.5607732570        0.4317072686
 C         -0.1031285559       -0.5898921084       -3.6807771252
 C          3.7626965648       -0.1474448457        2.8499715561
 C         -1.8507543745       -1.9851451584        1.7670003357
 C          3.1242632681        2.1619325868        3.1633315361
 C         -3.0385541642       -0.0853586688        0.8561101743
 C          0.4218990926        3.7434545092       -0.0626395166
 C         -1.6232003925       -2.3116705411       -2.9491131792
 C          2.3033596260        2.8856907111       -1.3162722577
 C          0.7574489946       -2.7265624997       -2.9733438974
 C          2.2246399440       -1.9731747782        3.5220140765
 C          0.3272443595       -2.6814489634        0.8073355376
 C          0.9083184817        2.7425556305        4.0729348326
 C         -2.0777140339        1.1945587335       -1.0393465551
 C         -0.5948983163        2.3845257643        1.7460624156
 C         -2.5283631825       -0.0972694131       -3.4977947520
 C          3.2340075950        0.6443266775       -0.8087685814
 C          2.3362639488       -0.9350993205       -3.6381511701
 C          2.5667037122       -0.5591420196        3.4438126764
 C         -0.8312078029       -1.7988757218        0.8316008386
 C          1.9272805444        1.7548427109        3.7510028813
 C         -2.0160838909        0.1105790039       -0.0712889373
 C          0.3841423062        2.5679329357        0.6863721994
 C         -1.4035313253       -1.0164772010       -3.4170616791
 C          2.2744488531        1.7116696627       -0.5614783367
 C          0.9797288548       -1.4304473164       -3.4466990499
 C          4.0236299291        1.2026624524        2.7325526517
 C         -2.9299188732       -1.1229476829        1.7645186506
 C          1.3764280099        3.8763260837       -1.0541336522
 C         -0.5380305411       -3.1440577566       -2.7442735306
 C          2.4183522567       -4.2102764627        2.8944153259
 C          1.6239242964       -4.4621782488        1.5875108719
 C         -1.2720100992        3.3575543024        4.6000675826
 C         -2.1381045527        3.0858438581        3.3258570873
 C         -3.1340881140        2.7885489792       -2.3479793912
 C         -3.4519016604        2.0295647365       -3.6770190539
 C          5.0092498365       -0.3554159862       -1.9536742759
 C          4.6472100682       -0.9866460679       -3.3225081108
 Br         5.6555294422        1.7687505719        1.9159053828
 Br        -4.3127676968       -1.3603733536        3.0597240289
 Br         1.4060804834        5.4757037863       -2.0986423808
 Br        -0.8461724476       -4.9099830658       -2.0874563675
 N          2.8613581803       -2.8489503425        2.8725275850
 N          0.4594764132       -3.6358267934        1.6211014486
 N         -0.2116615743        2.4086393861        4.5592442918
 N         -3.1427913701        1.8292222031       -1.2887525823
 N         -1.3126408061        3.3287606470        2.1860413170
 N         -2.3834963183        1.1061106906       -3.8650777034
 N          4.1025907867        0.7230074146       -1.7197602634
 N          3.3415500839       -1.5609312068       -3.1997015457
 H          2.5697364205       -6.8449105933        3.7378938838
 H          4.0753148761       -7.2453269651        2.9054211342
 H          2.0722352157       -7.8905540797        1.5541134042
 H          3.0511098861       -6.6750788099        0.7280234971
 H         -3.0164086558        5.1202000315        5.8311179496
 H         -3.9464907349        3.9092580283        6.7195366236
 H         -4.5732963461        2.7994135540        4.6030946496
 H         -5.0400866064        4.5023824901        4.5537557371
 H         -3.2857318224        5.3580265444       -3.3595978215
 H         -5.0119545467        5.5974636732       -3.0712130325
 H         -4.5686631455        4.8120969326       -5.4000805610
 H         -5.5451002343        3.6495443187       -4.4970964726
 H          8.4370662692       -0.4825791232       -2.3948130526
 H          7.4173035362       -1.6759193780       -1.5855949577
 H          7.7734295085       -2.3294315107       -3.9447373040
 H          7.1520547258       -0.7676458306       -4.4880035162
 H          4.1655545305       -4.9557952654        3.8875031587
 H          4.2932090152       -4.8997588748        2.1270353029
 H          0.6466052523       -6.0915438162        0.5915625322
 H          0.5189966912       -6.1289670771        2.3522034980
 H         -2.4455499273        2.1165237170        5.8877410327
 H         -1.5171907163        3.3632826288        6.7267818651
 H         -2.9945534278        5.0441052960        3.2518985907
 H         -3.9424854244        3.8028660624        2.4284717913
 H         -5.1527304780        3.3809877174       -1.9595637198
 H         -3.9325716802        4.3893884786       -1.1762724675
 H         -2.5253112613        3.4781106204       -4.9484643332
 H         -3.7490689449        2.4866946638       -5.7474871066
 H          6.4734330518        0.9937005995       -2.7392411448
 H          6.6769921020        0.6232435938       -1.0255354804
 H          5.5755800190       -2.8740431543       -2.9302424321
 H          5.3880117329       -2.5010889332       -4.6460894523
 H          0.7345812442        0.1010699188        4.3631978615
 H         -0.1304868907       -0.5948393394       -0.7982356315
 H          1.2861795549        0.6548421263        1.0206786766
 H          0.0446989563        0.4170222789       -4.0395777436
 H          4.4546226512       -0.8936572859        2.4937172119
 H         -1.7717471554       -2.7985241656        2.4700589168
 H          3.3400374343        3.2120321716        3.0355489035
 H         -3.8837126736        0.5841645139        0.8539806104
 H         -0.2977205755        4.5191141365        0.1445732189
 H         -2.6293515990       -2.6423146839       -2.7394964897
 H          3.0519349419        2.9936548154       -2.0845549370
 H          1.6037637398       -3.3705672516       -2.7951022188
 H          1.3555230472       -2.2193854764        4.1475464946
 H          1.0764021424       -2.4571645658        0.0314172889
 H          1.1479662211        3.7839793776        3.8125433141
 H         -1.1278872393        1.4210687756       -1.5452622618
 H         -0.6604763236        1.3627646623        2.1480736328
 H         -3.4933746602       -0.5034518414       -3.1666413354
 H          3.1490927077       -0.2315166194       -0.1459315062
 H          2.4227642395        0.0306942325       -4.1552687866
 H          1.7337884560       -4.4018546939        3.7380729569
 H          2.2793124059       -4.2123151312        0.7344638576
 H         -0.9046725984        4.3965410990        4.5344134083
 H         -2.4531592305        2.0308126089        3.3788770151
 H         -2.1361823841        3.2386431959       -2.4762214037
 H         -4.4227743093        1.5205277050       -3.5455724299
 H          4.9205195785       -1.1405740176       -1.1819929593
 H          4.6683787120       -0.1790673757       -4.0738859588
 C         -5.8275488558       -3.2162648900       -3.1488598825
 C         -7.1993768391       -2.5415752007       -3.1366198208
 O         -4.8945973834       -2.4553542183       -2.3951823483
 C         -5.3524303806       -2.2782841086       -1.0634493058
 C         -6.7283520549       -1.6120581772       -1.0505657074
 O         -7.6571072789       -2.3678629991       -1.8073217426
 H         -5.4285873240       -3.2734386282       -4.1620915574
 H         -7.1328194976       -1.5629669125       -3.6347496314
 H         -5.4077399899       -3.2559744197       -0.5643250634
 H         -6.6491526188       -0.5976483017       -1.4682576724
 H         -7.9418009335       -3.1626060201       -3.6375286253
 H         -4.6112265756       -1.6479906528       -0.5710395636
 H         -7.1263747118       -1.5649214269       -0.0371128921
 H         -5.9060833568       -4.2244895909       -2.7189823419