142
-211.12685323
 C          1.9389516311       -6.5579525557        2.9012949785
 C          1.1372422577       -6.6481248842        1.6068643055
 C         -2.1536389231        5.2619639287        6.0789197120
 C         -3.0689362516        5.2155565976        4.8596407192
 C         -3.0203339158        6.3304415887       -2.8985280620
 C         -3.5032289976        5.7286605794       -4.2143894006
 C          7.2163921371       -1.5572716692       -2.4681775566
 C          6.7228390829       -2.0835172660       -3.8120257865
 C          2.6474111243       -5.2114005904        2.9930141757
 C          0.1295056434       -5.5079138550        1.5250674905
 C         -1.1672363164        4.0999850392        6.0491876676
 C         -2.2477480575        5.2463179620        3.5754705251
 C         -3.1513168688        5.3155885242       -1.7683758684
 C         -2.7214745646        4.4611064225       -4.5404109984
 C          6.4507498663       -0.2992707652       -2.0762222492
 C          5.2258849272       -2.3653577775       -3.7535971925
 C          1.8729974057        0.6054703818        3.9529045897
 C         -0.9078678938        0.0472407072        0.0432573746
 C          1.7328166460        1.9636761963        0.5028932267
 C         -0.1455744702        0.1874816742       -3.5829002426
 C          3.7918738378       -0.3610049757        2.8643129798
 C         -2.1320759386       -1.0867516753        1.7783573050
 C          3.6739952385        2.0262549312        3.2182658705
 C         -2.9073239805        1.0450917677        0.9419088360
 C          1.2555266847        4.2809282144        0.0530749257
 C         -1.9503175501       -1.2249753870       -2.8422633849
 C          2.9015800733        3.1009388042       -1.2678620022
 C          0.3028792298       -2.0919540457       -2.9470975657
 C          1.9072622083       -1.8234088772        3.5387099432
 C         -0.0813083909       -2.1294224395        0.8576253999
 C          1.6518520216        3.0599897930        4.1748339209
 C         -1.6540294560        2.2135419680       -0.8501979577
 C          0.0513340664        3.1143551296        1.8802301998
 C         -2.4086091571        1.1499923368       -3.3164283601
 C          3.4158319849        0.7208312620       -0.8015861610
 C          2.1806583267       -0.6187803901       -3.6216779791
 C          2.5404069435       -0.5130505413        3.4673752975
 C         -1.0542733056       -1.0459269862        0.8919140020
 C          2.4229215049        1.8792427807        3.8158252688
 C         -1.8261895475        1.0941458432        0.0626864698
 C          1.0193850128        3.1236682573        0.7941361467
 C         -1.4971526461        0.0160131843       -3.2877701389
 C          2.6779772103        1.9444070822       -0.5185443069
 C          0.7596819256       -0.8512781849       -3.3996741780
 C          4.3387451012        0.9018925650        2.7615844743
 C         -3.0351557563       -0.0411442043        1.7877988182
 C          2.1850633096        4.2442074747       -0.9699135245
 C         -1.0426975505       -2.2581347238       -2.6890482497
 C          1.6479443025       -4.0578167773        2.9178221792
 C          0.8298015346       -4.1498270685        1.6039313948
 C         -0.3241950459        4.1294349621        4.7769096030
 C         -1.2640998497        4.0815046162        3.5275055690
 C         -2.3600292856        4.0489081404       -2.0778751640
 C         -2.8604966827        3.4290281002       -3.4243122293
 C          4.9474703009       -0.5745165102       -2.0015088650
 C          4.4462110725       -1.1091143679       -3.3677332652
 Br         6.0470279883        1.1131882476        1.9320209302
 Br        -4.5006544438       -0.0903798002        3.0128670995
 Br         2.4774501477        5.8211693074       -2.0082255095
 Br        -1.6698432777       -3.9505221800       -2.0624102442
 N          2.3558515763       -2.8138761464        2.8967988810
 N         -0.1567979627       -3.1180022949        1.6370897611
 N          0.4985150000        2.9709430203        4.6884704271
 N         -2.5607652942        3.0711153986       -1.0567845714
 N         -0.4356571385        4.1749157420        2.3678699220
 N         -2.0238067390        2.3034731138       -3.6682753530
 N          4.2609665259        0.6492591267       -1.7350032834
 N          3.0592756177       -1.4319281127       -3.2200790246
 H          1.2672449559       -6.6743992332        3.7547204305
 H          2.6775245165       -7.3603693564        2.9417129487
 H          0.6080342804       -7.6010567831        1.5591027797
 H          1.8155583171       -6.5961286125        0.7524029036
 H         -1.6030715612        6.2055305655        6.0860696992
 H         -2.7466484370        5.2106937762        6.9934294981
 H         -3.6653152815        4.3007888850        4.8868676499
 H         -3.7536356842        6.0650180842        4.8738447266
 H         -1.9746602223        6.6303755942       -2.9973926962
 H         -3.6049685280        7.2198015638       -2.6580895126
 H         -3.3769169393        6.4501350251       -5.0231685282
 H         -4.5665243514        5.4899097474       -4.1379477143
 H          8.2818844950       -1.3288313365       -2.5226538770
 H          7.0746613906       -2.3223703316       -1.7017360641
 H          7.2552167020       -2.9992459292       -4.0745816518
 H          6.9230926877       -1.3423536264       -4.5889744887
 H          3.1991106202       -5.1335648206        3.9321568552
 H          3.3603169799       -5.1030489927        2.1738478197
 H         -0.4303829034       -5.5575573664        0.5892240593
 H         -0.5840535221       -5.5738295682        2.3478291736
 H         -1.7009635971        3.1489954947        6.0878552479
 H         -0.4974911450        4.1464214865        6.9104108166
 H         -1.6840760239        6.1781168352        3.5065721968
 H         -2.9021372952        5.1820088497        2.7043235950
 H         -4.1975262058        5.0428187763       -1.6208635115
 H         -2.7774167022        5.7372364876       -0.8337330810
 H         -1.6625223176        4.6915980550       -4.6678258624
 H         -3.0847793978        4.0180885317       -5.4700097631
 H          6.6189710812        0.4904789963       -2.8100097014
 H          6.7873321616        0.0667229242       -1.1044000130
 H          5.0161385491       -3.1413171833       -3.0154353649
 H          4.8649977181       -2.7159922232       -4.7227025093
 H          0.9031150101        0.5142665065        4.4168348965
 H         -0.0767164569        0.0836747831       -0.6467437499
 H          1.5544567336        1.0712463058        1.0859508499
 H          0.1842152426        1.1560172152       -3.9254583016
 H          4.3018666082       -1.2343423011        2.4904154973
 H         -2.2365548995       -1.9368495462        2.4330669275
 H          4.1122615937        3.0062887609        3.1041672345
 H         -3.6152715399        1.8582150576        0.9461268233
 H          0.7028739901        5.1758046414        0.2897670915
 H         -2.9939802426       -1.3730630751       -2.6089461561
 H          3.6319788378        3.0761818959       -2.0604243422
 H          1.0123175405       -2.8917396081       -2.8068961688
 H          1.0012154773       -1.8825963180        4.1575390654
 H          0.7191440204       -2.0255190685        0.1078822012
 H          2.1086048659        4.0282539103        3.9225194607
 H         -0.6793164006        2.2569804020       -1.3579778460
 H         -0.2211699857        2.1168154704        2.2551950427
 H         -3.4310514000        0.9555003364       -2.9607639179
 H          3.1869584363       -0.1330012327       -0.1439256896
 H          2.4362070299        0.3234249182       -4.1259941601
 H          0.9317327304       -4.1059037286        3.7555613166
 H          1.5281581768       -4.0242472156        0.7576661233
 H          0.2615857019        5.0630633478        4.7140536390
 H         -1.7955074674        3.1166548070        3.5699882124
 H         -1.2903987817        4.2776367532       -2.2146876791
 H         -3.9167189653        3.1408806374       -3.2827832648
 H          4.7325337898       -1.3406108101       -1.2355833768
 H          4.6015103472       -0.3091040878       -4.1113148199
 C         -7.3205470440       -9.1331229622       -2.0651297650
 C         -8.2428885675       -8.1213786442       -2.7482135316
 O         -7.9014605459      -10.4264426599       -2.0799197860
 C         -8.1872065329      -10.8302959441       -3.4085142144
 C         -9.1105784564       -9.8189625453       -4.0909229081
 O         -8.5302494749       -8.5254204467       -4.0767445834
 H         -7.1707448785       -8.8774291937       -1.0161429446
 H         -9.1803980201       -8.0357556433       -2.1798633179
 H         -7.2495508114      -10.9138503261       -3.9768845338
 H        -10.0778946792       -9.7934327962       -3.5684655724
 H         -7.7626034861       -7.1457108003       -2.8229109021
 H         -8.6656215514      -11.8069823215       -3.3343660516
 H         -9.2612797293      -10.0741596799       -5.1399777469
 H         -6.3525853696       -9.1584204807       -2.5861889448