142
-211.12804474
 C          2.8052404529       -6.7698982044        3.6914600380
 C          2.0993608999       -7.1527558450        2.3945980807
 C         -2.9841094308        4.3938357683        6.2122777651
 C         -3.9225153511        4.2752449011        5.0157422994
 C         -3.0849505165        5.0310105412       -3.3013464436
 C         -3.4425334196        4.3518722682       -4.6196594042
 C          7.1620432693       -0.3076013059       -2.8049853114
 C          6.7536974492       -0.8607637700       -4.1669620229
 C          3.2885279592       -5.3255390319        3.6272764937
 C          0.9327369617       -6.2094820149        2.1249005690
 C         -1.8572123593        3.3728019728        6.1070944585
 C         -3.1510544163        4.4664326159        3.7150490173
 C         -3.2166001024        4.0477973780       -2.1437403997
 C         -2.5596770739        3.1300560016       -4.8491908901
 C          6.1762239370        0.7580559236       -2.3407549229
 C          5.3410223426       -1.4322684973       -4.1005054029
 C          1.5687350618        0.3471552668        3.9644430374
 C         -0.6762849540       -0.9389402233        0.0349734733
 C          1.1892462852        1.9880093247        0.3971602367
 C          0.1733102211       -1.0249967831       -3.6264964848
 C          3.5890254794       -0.3810529430        2.8745668779
 C         -1.8987928476       -2.0702245250        1.7744224023
 C          3.1216316708        1.9785410306        3.1108468203
 C         -2.8135428954       -0.0843874177        0.7426530863
 C          0.2531389115        4.1752034965        0.0259286130
 C         -1.6700113188       -2.4956796697       -3.1299264003
 C          2.0539258722        3.3719073230       -1.3732588983
 C          0.5891529844       -3.3538028327       -3.1721657491
 C          1.9785344708       -2.0694247841        3.7139298710
 C          0.3148489229       -2.9392232134        1.0786455731
 C          1.0095762020        2.7539288571        4.1207614042
 C         -1.5581398977        1.0860654209       -1.0461786673
 C         -0.6415507231        2.7585533864        1.8507729937
 C         -2.1374707511       -0.1181369916       -3.5209885745
 C          3.0393514916        1.1343480156       -0.9954914363
 C          2.5096998193       -1.8600679091       -3.5993318871
 C          2.3894415004       -0.6850571642        3.5239498187
 C         -0.7716916367       -1.9785243868        0.9554488970
 C          1.9213262345        1.6794324909        3.7542837324
 C         -1.6883159255        0.0107661799       -0.0758869711
 C          0.2728490939        2.9787454660        0.7404392182
 C         -1.1930965600       -1.2242510607       -3.4551645174
 C          2.0885039162        2.1801267044       -0.6472041665
 C          1.0699616740       -2.0801402246       -3.4785021973
 C          3.9343011968        0.9418819697        2.6863509292
 C         -2.8959155751       -1.1220906684        1.6529134067
 C          1.1352911948        4.3426520198       -1.0256554763
 C         -0.7704883458       -3.5348823429       -2.9992460752
 C          2.1244628849       -4.3700923044        3.3685132277
 C          1.4078579611       -4.7585299140        2.0474092252
 C         -1.0632145345        3.5592105709        4.8161404964
 C         -2.0246528641        3.4447488966        3.5889822883
 C         -2.3216613616        2.8321391329       -2.3604204103
 C         -2.6996706367        2.1300196561       -3.7037790713
 C          4.7486956477        0.2070636855       -2.2879557240
 C          4.3519608002       -0.3410559793       -3.6842081431
 Br         5.5723620303        1.3586763283        1.7944091353
 Br        -4.4325468397       -1.2391610617        2.7813542877
 Br         1.0693664347        5.9618625129       -2.0344906211
 Br        -1.4235308226       -5.2730386663       -2.5365250289
 N          2.6206730806       -3.0364220580        3.2154328460
 N          0.2817961919       -3.8915266471        1.9056392526
 N         -0.1063189102        2.5152413718        4.6676758808
 N         -2.5046709785        1.8837340380       -1.3082591811
 N         -1.2511487951        3.7095172476        2.4184601269
 N         -1.7854565486        1.0489438177       -3.8616096186
 N          3.8547160760        1.2643806064       -1.9465429860
 N          2.9638243195       -0.6842588381       -3.6316841085
 H          2.1142489869       -6.8847263863        4.5294869207
 H          3.6565347734       -7.4306044227        3.8635726535
 H          1.7291498215       -8.1771989830        2.4577824908
 H          2.8081487563       -7.1013754271        1.5649102770
 H         -2.5606886491        5.4003145549        6.2454301059
 H         -3.5364911749        4.2296959302        7.1389334190
 H         -4.3925159491        3.2892040623        5.0176834371
 H         -4.7119569754        5.0253858402        5.0840230610
 H         -2.0587823518        5.4006961468       -3.3498227403
 H         -3.7419870600        5.8852315099       -3.1307607636
 H         -3.3139364665        5.0522010827       -5.4464049698
 H         -4.4903987848        4.0431623402       -4.5984015830
 H          8.1617333209        0.1256020095       -2.8609608634
 H          7.1900126805       -1.1195220954       -2.0741668100
 H          7.4508270230       -1.6419059896       -4.4767691155
 H          6.7884959778       -0.0629146318       -4.9115267513
 H          3.7701310070       -5.0419442038        4.5652590295
 H          4.0185336346       -5.2057699580        2.8248908876
 H          0.4420811998       -6.4677565777        1.1842781970
 H          0.1919451611       -6.2859894205        2.9222419753
 H         -2.2629169897        2.3598361415        6.1178687871
 H         -1.1731522297        3.4713654952        6.9525315678
 H         -2.7152806084        5.4660536912        3.6753772055
 H         -3.8163698839        4.3542427673        2.8569156467
 H         -4.2487472481        3.7055917664       -2.0510998107
 H         -2.9352443500        4.5234129756       -1.2025606733
 H         -1.5123639603        3.4273682473       -4.9209747348
 H         -2.8335993099        2.6315080286       -5.7812544214
 H          6.1873486405        1.6079051437       -3.0240777122
 H          6.4471449114        1.1188547310       -1.3465976117
 H          5.3207671403       -2.2482959073       -3.3735528289
 H          5.0441733610       -1.8300253317       -5.0742834075
 H          0.6347665479        0.1388580400        4.4627855560
 H          0.1879456386       -0.8667717210       -0.6102992753
 H          1.2009818263        1.0621694483        0.9553336681
 H          0.5462591622       -0.0429437824       -3.8667207305
 H          4.2192234469       -1.1877673491        2.5357766264
 H         -1.9639942168       -2.8785590704        2.4846475057
 H          3.4076235538        3.0052435303        2.9387280704
 H         -3.5881725818        0.6605033757        0.6527785776
 H         -0.4563697451        4.9385479835        0.3011393365
 H         -2.7281028189       -2.6490580123       -2.9800082332
 H          2.7432677309        3.5009457511       -2.1917721407
 H          1.2700241911       -4.1840575767       -3.0556278500
 H          1.0652149465       -2.2151219917        4.3074248401
 H          1.1717790434       -2.7736819852        0.4066936603
 H          1.3343212256        3.7725050485        3.8635037814
 H         -0.5779467947        1.1587829454       -1.5364673868
 H         -0.7575182524        1.7104984505        2.1654411793
 H         -3.1690669226       -0.3621011422       -3.2295570711
 H          2.9902149173        0.2230440930       -0.3758822535
 H          3.1232645006       -2.7685599068       -3.6353652311
 H          1.3784442904       -4.4370151049        4.1786505568
 H          2.1311456414       -4.6291256420        1.2225888482
 H         -0.5989928655        4.5598229617        4.7786221215
 H         -2.4230562330        2.4170712870        3.5937137395
 H         -1.2650538953        3.1330444200       -2.4496023953
 H         -3.7432099918        1.7797060486       -3.6124035996
 H          4.6885796376       -0.6289005664       -1.5636176795
 H          4.4088037702        0.5014767138       -4.3843435809
 C         -5.3566614334       -1.9228345837       -1.2664222341
 C         -5.8530614039       -3.1780382474       -0.5483179664
 O         -4.9246985451       -2.2384635663       -2.5809490241
 C         -5.9708081993       -2.8550506397       -3.3174053200
 C         -6.4692023164       -4.1076571910       -2.5952234709
 O         -6.8992288435       -3.7870365559       -1.2835598542
 H         -4.4923770619       -1.4933001355       -0.7589687319
 H         -5.0223110713       -3.8895145747       -0.4296602423
 H         -6.7990570221       -2.1427787810       -3.4368190078
 H         -5.6627763182       -4.8536377377       -2.5469412661
 H         -6.2696196198       -2.9278783050        0.4272466176
 H         -5.5523895257       -3.1058147699       -4.2925831282
 H         -7.3341661629       -4.5303511146       -3.1060969533
 H         -6.1664646812       -1.1816005226       -1.3164100103