142
-211.12852096
 C          3.6459980690       -6.3536066853        3.4447564746
 C          2.6426851964       -6.7432397998        2.3639596977
 C         -2.3213719060        4.6606711314        6.4202771098
 C         -3.3847123781        4.2883141891        5.3919911161
 C         -4.9319255261        4.4814893215       -2.3133600853
 C         -5.5104553179        3.6165644631       -3.4286737992
 C          6.6907386369       -1.2227169974       -3.1961230710
 C          6.0770095467       -1.9758831739       -4.3719134458
 C          4.0608905833       -4.8956724318        3.2832238329
 C          1.4231809989       -5.8308963835        2.4164887988
 C         -1.1160787122        3.7348239853        6.3005532108
 C         -2.8057815778        4.3458381863        3.9827830846
 C         -4.6290579439        3.6326013487       -1.0837285596
 C         -4.5474048325        2.4894611421       -3.7842208689
 C          5.7739754677       -0.0880914435       -2.7552794246
 C          4.7015761057       -2.5151867290       -3.9965117360
 C          2.2461653939        0.7286260961        3.9597710220
 C         -1.0162458766       -0.8090260768        0.7252199807
 C          1.2274431520        1.5702042301        0.5061215546
 C         -0.9591635980       -1.0167158598       -2.9573615980
 C          4.1007598477        0.0476565143        2.5822699972
 C         -1.6168017121       -1.9009619270        2.7847390417
 C          3.5195155873        2.3861296730        2.7629914938
 C         -2.9699497594       -0.0865268498        1.9337689015
 C          0.2413031795        3.7032913115       -0.0206706025
 C         -2.2587417587       -2.6514107103       -1.7572619455
 C          1.8470444392        2.7019544729       -1.5260291463
 C          0.0705892863       -3.0727909842       -2.2414708403
 C          2.7398199534       -1.6741048523        3.7364894139
 C          0.3879296180       -2.6634061706        1.5408406992
 C          1.5214968201        3.0932850565        4.0207411802
 C         -2.3556900185        1.0377072952       -0.1903020329
 C         -0.3971247517        2.5398454412        2.0750729030
 C         -3.2923648284       -0.4877308400       -2.3262110019
 C          2.8769974658        0.5118140851       -0.9896824943
 C          1.4418535181       -1.3593844552       -3.3942687675
 C          3.0461776061       -0.2813137607        3.4378843523
 C         -0.7641306761       -1.7841401539        1.6854895637
 C          2.4626647540        2.0611967136        3.6125008167
 C         -2.1126041351        0.0417484575        0.8417331751
 C          0.3585355922        2.6080249929        0.8341629043
 C         -2.1678294483       -1.4095393958       -2.3843208909
 C          1.9759040713        1.6095335102       -0.6662896048
 C          0.1643801171       -1.8310264500       -2.8754714200
 C          4.3239598389        1.3736229939        2.2709658927
 C         -2.7000194028       -1.0494942283        2.8886982381
 C          0.9828868359        3.7255860653       -1.1876124381
 C         -1.1396620055       -3.4635511083       -1.7054327429
 C          2.8461154296       -3.9704847276        3.3419116291
 C          1.8277015285       -4.3656504669        2.2419248182
 C         -0.5152633614        3.7946098484        4.8985188830
 C         -1.6090865131        3.4099493177        3.8478110167
 C         -3.6548409370        2.5092756032       -1.4231946085
 C         -4.2478413761        1.6197031536       -2.5659888109
 C          4.3933737656       -0.6190332988       -2.3637226874
 C          3.7697491189       -1.3860629528       -3.5579338842
 Br         5.7606091681        1.8255265475        1.0950144785
 Br        -3.8556007151       -1.1969108829        4.4031920325
 Br         0.7967410686        5.2138302824       -2.3719196510
 Br        -1.2683699016       -5.1573511429       -0.8311394820
 N          3.2562319289       -2.6234545206        3.0835477073
 N          0.6735146083       -3.5397412444        2.4016618102
 N          0.5211226344        2.8300821624        4.7504070516
 N         -3.4499721866        1.6643020608       -0.2905916588
 N         -1.0197432859        3.5319853938        2.5529429903
 N         -3.2445184264        0.6559192738       -2.8665047341
 N          3.5384952364        0.4847550206       -2.0630521726
 N          2.5272793000       -1.9390457377       -3.1114725517
 H          3.1943612793       -6.4959752631        4.4290402638
 H          4.5292709219       -6.9916012478        3.3837702201
 H          2.3252093341       -7.7779302276        2.5020204569
 H          3.1139425717       -6.6636578201        1.3818861199
 H         -2.0035520788        5.6932717819        6.2584489949
 H         -2.7345274938        4.5889752364        7.4276362210
 H         -3.7481830310        3.2781411106        5.5937234798
 H         -4.2315829580        4.9723594480        5.4657165669
 H         -4.0121039675        4.9568378811       -2.6614094320
 H         -5.6383274516        5.2691012305       -2.0464942844
 H         -5.6978206529        4.2248625989       -4.3148506229
 H         -6.4629254586        3.1916263899       -3.1035508206
 H          7.6616693173       -0.8128301509       -3.4784717240
 H          6.8450765008       -1.9105407708       -2.3618720111
 H          6.7241410857       -2.8041282348       -4.6654532947
 H          5.9826627495       -1.3021945606       -5.2264744493
 H          4.7578883563       -4.6071927034        4.0727364006
 H          4.5595813741       -4.7488755652        2.3236656409
 H          0.7143471795       -6.0933696597        1.6288840026
 H          0.9136968587       -5.9344597205        3.3757304614
 H         -1.4087358593        2.7040231182        6.5068857127
 H         -0.3455202203        4.0175217345        7.0207500587
 H         -2.4811471121        5.3602721830        3.7456498766
 H         -3.5590315653        4.0523658510        3.2495138300
 H         -5.5460070487        3.1893903849       -0.6919800011
 H         -4.1875278756        4.2466639363       -0.2967550027
 H         -3.6067043889        2.8989983556       -4.1557470728
 H         -4.9723348805        1.8590586488       -4.5679283445
 H          5.6473290037        0.6324892954       -3.5647096257
 H          6.2004385564        0.4388088567       -1.8995903529
 H          4.7872327944       -3.2290856963       -3.1755376944
 H          4.2487812562       -3.0311293955       -4.8457164324
 H          1.4218731413        0.4987925156        4.6169701530
 H         -0.3597518773       -0.7139383087       -0.1280255136
 H          1.3251329733        0.7286055864        1.1772024828
 H         -0.9091820154       -0.0503072836       -3.4344714111
 H          4.7159197781       -0.7418694874        2.1812809522
 H         -1.4116891041       -2.6564907822        3.5259055932
 H          3.6990242529        3.4135380050        2.4840800454
 H         -3.8195727745        0.5724068623        2.0124362203
 H         -0.4292404843        4.5048581912        0.2442892396
 H         -3.1873909550       -2.9690632553       -1.3076210674
 H          2.4293239515        2.7232868973       -2.4330675353
 H          0.9474624122       -3.6973160840       -2.1816440074
 H          2.0058479370       -1.8397813407        4.5372299659
 H          0.9885895682       -2.5109091051        0.6299080095
 H          1.7004844089        4.0978673324        3.6102664493
 H         -1.5204659258        1.2014608132       -0.8871848424
 H         -0.3823801738        1.5610170502        2.5767438532
 H         -4.1613299263       -0.8252804769       -1.7423463388
 H          2.9402836099       -0.2878366927       -0.2345396850
 H          1.4006854662       -0.4522567800       -4.0129284964
 H          2.3328228043       -4.0609572076        4.3142403959
 H          2.3092034735       -4.2120225526        1.2599302356
 H         -0.1724198259        4.8162670849        4.6592137301
 H         -1.8995825408        2.3685981945        4.0633851647
 H         -2.7035578802        2.9165515244       -1.8032824877
 H         -5.1701624375        1.1547418876       -2.1763701882
 H          4.4749761177       -1.3190591611       -1.5134060885
 H          3.6232194582       -0.6600553449       -4.3755096048
 C         -5.5161859259       -1.2182496411       -8.4295034426
 C         -5.9914846605       -2.4321023181       -7.6286881785
 O         -4.6558355798       -0.4093290205       -7.6443768508
 C         -3.5489736179       -1.1628861738       -7.1807779750
 C         -4.0258077460       -2.3734902664       -6.3763790213
 O         -4.8846799173       -3.1845329052       -7.1580946355
 H         -6.3565857641       -0.5843322324       -8.7124329590
 H         -6.5955389175       -2.0954383975       -6.7736798634
 H         -2.9512633371       -1.5046994003       -8.0381185293
 H         -4.5613529886       -2.0290975698       -5.4795544967
 H         -6.5752295889       -3.1080801727       -8.2533661527
 H         -2.9583767703       -0.4902396683       -6.5594118470
 H         -3.1861931859       -3.0056574877       -6.0863512254
 H         -4.9822579196       -1.5570137903       -9.3289456349