142
-211.12693571
 C          3.2884332343       -6.6806744992        2.7358307014
 C          2.7101729210       -6.8901651497        1.3401048032
 C         -3.6841097703        3.8623582948        5.2178982282
 C         -4.3455417739        3.6845000900        3.8550377539
 C         -3.4496884863        5.0573743616       -3.6785264685
 C         -3.5697331150        4.4072620494       -5.0530281044
 C          8.2312947643       -0.3325752132       -1.7908312577
 C          8.0486837543       -0.8769188864       -3.2038202953
 C          3.6729538724       -5.2193709307        2.9359854785
 C          1.5029575738       -5.9857059250        1.1241355301
 C         -2.4730775228        2.9454393658        5.3468546390
 C         -3.3461876687        3.9603613621        2.7373576983
 C         -3.5163797733        4.0003084499       -2.5820328208
 C         -2.4708583166        3.3688466724       -5.2479830562
 C          7.1629128765        0.7089241474       -1.4812123338
 C          6.6569645747       -1.4775675574       -3.3639862193
 C          1.5414685645        0.2714076845        3.7829947823
 C         -0.4622542182       -0.7050478922       -0.4383192295
 C          1.7109150275        1.7755679463        0.3510463098
 C          0.8703026122       -0.2078630306       -3.9048833302
 C          3.7665140486       -0.2383933844        3.0153786055
 C         -1.6694842606       -2.1573678994        1.0546283762
 C          3.0981790670        2.0589112943        3.3547968413
 C         -2.7514177318       -0.2072329797        0.1205310280
 C          0.8408356820        3.9749176007       -0.1037916389
 C         -0.6340095813       -2.0384764267       -3.4716382273
 C          2.9007048112        3.2455560379       -1.1385075786
 C          1.7513103037       -2.3485123654       -3.2401883184
 C          2.1496658214       -2.0822136582        3.3792712199
 C          0.6783177239       -2.6941329197        0.4694511729
 C          0.7779278488        2.6162220876        3.9754054418
 C         -1.5166177730        1.2843564856       -1.4284370948
 C         -0.3826765167        2.4684411800        1.4397307639
 C         -1.5716936121        0.1813938202       -3.9898830653
 C          3.8156087335        0.9911464346       -0.6676499849
 C          3.3047979675       -0.4520823980       -3.6105557706
 C          2.4958707528       -0.6671280193        3.4089168047
 C         -0.4993241457       -1.8439879538        0.3605450369
 C          1.8273026733        1.6353360844        3.7409522435
 C         -1.5802437563        0.1159460974       -0.5637622081
 C          0.7303031834        2.7453923023        0.5446529838
 C         -0.4295859673       -0.7054956042       -3.8255495995
 C          2.7993153979        2.0178100296       -0.4816513924
 C          1.9606357455       -1.0146186369       -3.6007488959
 C          4.0464928691        1.1129174264        3.0070512691
 C         -2.7701881116       -1.3326392594        0.9235956721
 C          1.9198484573        4.1980009502       -0.9391350691
 C          0.4613778363       -2.8369808673       -3.1936068440
 C          2.4694962549       -4.3005801732        2.7292146815
 C          1.8782951214       -4.5144723711        1.3115237399
 C         -1.4541643532        3.2204714088        4.2438627551
 C         -2.1350880194        3.0397075820        2.8470724913
 C         -2.4147543677        2.9599452015       -2.7574192501
 C         -2.5346703079        2.2923482338       -4.1675087124
 C          5.7594908497        0.1181498505       -1.6291323331
 C          5.5734091478       -0.4428914240       -3.0629976377
 Br         5.7816845935        1.7018963255        2.4644525861
 Br        -4.3678483295       -1.7550858025        1.8829495046
 Br         2.0494040827        5.8708406684       -1.8539485667
 Br         0.1717865987       -4.6594032379       -2.6975734496
 N          2.8920232589       -2.9359454277        2.8185423634
 N          0.6986180520       -3.7164919998        1.2077582263
 N         -0.3984782836        2.2663797813        4.2847398437
 N         -2.5487067415        1.9224220494       -1.7860104356
 N         -1.1637561805        3.3725927764        1.8550394521
 N         -1.4255307459        1.4065010444       -4.2725443740
 N          4.7960583840        1.1556426361       -1.4437042636
 N          4.2880746065       -1.0706743557       -3.1156328155
 H          2.5462458420       -6.9671863396        3.4842526196
 H          4.1686519222       -7.3104381319        2.8756306225
 H          2.4090751634       -7.9308400987        1.2106943500
 H          3.4721071822       -6.6642773501        0.5909308708
 H         -3.3678195748        4.9011481405        5.3370522878
 H         -4.3971521299        3.6337627002        6.0116160309
 H         -4.7201859282        2.6625984424        3.7626924367
 H         -5.1936364862        4.3644203819        3.7599483701
 H         -2.4991368265        5.5912484643       -3.6103829677
 H         -4.2538148150        5.7809014063       -3.5355949375
 H         -3.4941777193        5.1660011329       -5.8335520521
 H         -4.5456470972        3.9249301420       -5.1443226192
 H          9.2181496009        0.1211980066       -1.6876828627
 H          8.1600745548       -1.1513843385       -1.0715860380
 H          8.8000787163       -1.6405049270       -3.4118182274
 H          8.1809992612       -0.0678588272       -3.9256217696
 H          4.0632277341       -5.0613294594        3.9434884237
 H          4.4500136174       -4.9329272039        2.2252567879
 H          1.1015453628       -6.1167028500        0.1174427587
 H          0.7136475572       -6.2314663688        1.8361907446
 H         -2.7804999072        1.9006315183        5.2789041089
 H         -1.9860062655        3.0916643498        6.3131651147
 H         -3.0001403423        4.9942130811        2.7827643127
 H         -3.8124083935        3.8021661251        1.7632567098
 H         -4.4806428994        3.4899486227       -2.6039537551
 H         -3.4007899174        4.4631183198       -1.6003500119
 H         -1.4893266594        3.8436822906       -5.2044935657
 H         -2.5699332004        2.8874775479       -6.2230804383
 H          7.2515494262        1.5561472129       -2.1629937255
 H          7.2767613936        1.0831901090       -0.4620080911
 H          6.5281580474       -2.3189418017       -2.6809907959
 H          6.5142460628       -1.8453125277       -4.3822076793
 H          0.5514552686       -0.0340800109        4.0842296427
 H          0.4402507071       -0.4572612193       -0.9789584149
 H          1.6274270936        0.8277806824        0.8638672691
 H          1.0057711223        0.8267208693       -4.1796572315
 H          4.4998508517       -0.9738785181        2.7257053915
 H         -1.6879032409       -3.0398386726        1.6736042005
 H          3.3346984959        3.1116147630        3.3169488935
 H         -3.6136762281        0.4308156151        0.0120151613
 H          0.0792356002        4.7210730537        0.0563045692
 H         -1.6346932098       -2.4383125911       -3.4057371602
 H          3.7458050622        3.4233025176       -1.7838148385
 H          2.6030587446       -2.9665759506       -3.0052970292
 H          1.1917126368       -2.3490016706        3.8467132346
 H          1.5439174339       -2.3862232515       -0.1384976868
 H          1.0556734565        3.6681377989        3.8144287864
 H         -0.5067792368        1.5689334886       -1.7586315401
 H         -0.4917436332        1.4159008969        1.7399135798
 H         -2.5595132273       -0.2647624243       -3.8032773349
 H          3.6708132709        0.0679072877       -0.0843661143
 H          3.3984513544        0.5515994048       -4.0479080796
 H          1.6722391146       -4.5298495382        3.4563185894
 H          2.6441967693       -4.2131146857        0.5752891754
 H         -1.0827832540        4.2584852452        4.2988696536
 H         -2.4384649761        1.9818898247        2.7791288496
 H         -1.4188557100        3.4309849682       -2.7150006025
 H         -3.5005397798        1.7587261788       -4.1988376879
 H          5.6115029814       -0.7128042744       -0.9170470747
 H          5.6409294698        0.4088732116       -3.7607919494
 C        -11.1522962139       -4.9361243953        0.9083823984
 C        -10.6319832421       -3.5796051085        0.4289072002
 O        -12.2874732456       -4.7692816227        1.7415818996
 C        -13.3063828573       -4.0559866406        1.0611846206
 C        -12.7855652501       -2.6993034645        0.5824025023
 O        -11.6517766671       -2.8672908498       -0.2522593992
 H        -10.4034308911       -5.4490528242        1.5119470282
 H        -10.2858867627       -2.9921050371        1.2914307864
 H        -13.6519137029       -4.6428110197        0.1976423829
 H        -12.5138161084       -2.0824287841        1.4511541409
 H         -9.8176842670       -3.7046387135       -0.2848652222
 H        -14.1204023863       -3.9313445562        1.7754792938
 H        -13.5343357782       -2.1846112109       -0.0199786355
 H        -11.4224240819       -5.5545245889        0.0400248725