142
-211.13276476
 C          3.5414704114       -6.3962614782        3.3495455997
 C          2.5569936401       -6.8396181426        2.2721823914
 C         -2.8165458328        4.4156979942        6.4297634351
 C         -3.9061131453        3.9533700099        5.4674808125
 C         -5.6127225162        3.9869588756       -2.3561081552
 C         -6.1293662073        3.1152065180       -3.4963404954
 C          6.2611692954       -1.2144426169       -3.1345237733
 C          5.7169325683       -2.0365472671       -4.2982719711
 C          3.8792644139       -4.9190878446        3.1839017839
 C          1.2917408811       -5.9920194971        2.3269462882
 C         -1.5742975923        3.5432186039        6.2884497824
 C         -3.3953111298        3.9816930057        4.0313444918
 C         -5.2812909491        3.1311814172       -1.1385972668
 C         -5.1053933566        2.0443931002       -3.8560120383
 C          5.2770445414       -0.1144241174       -2.7547126064
 C          4.3605072315       -2.6322648745       -3.9387390809
 C          1.8158857474        0.6151148269        3.8639031794
 C         -1.4341204822       -1.1255138827        0.6359902081
 C          0.6343223519        1.3236563416        0.4601771329
 C         -1.3847370998       -1.3341841490       -3.0198858052
 C          3.6799880795        0.0066811475        2.4651392343
 C         -1.9657782999       -2.2515573407        2.6960070332
 C          3.0021202105        2.3189558736        2.6426435113
 C         -3.4239108825       -0.5182609773        1.8489180211
 C         -0.5666723286        3.3319947258       -0.1071418893
 C         -2.6363614628       -3.0174315837       -1.8351410037
 C          1.0253720897        2.3864034352       -1.6637670298
 C         -0.2841218898       -3.3443408475       -2.2778116989
 C          2.4071210459       -1.7670121148        3.6385057506
 C          0.0782803881       -2.8940477206        1.4484915370
 C          0.9940257625        2.9485138823        3.9244004212
 C         -2.8774034151        0.6432228467       -0.2739581140
 C         -0.9859689617        2.2310944169        2.0734894451
 C         -3.7485546868       -0.9010719692       -2.4254673441
 C          2.2919696429        0.3354451235       -1.0672688780
 C          1.0350705785       -1.5777387783       -3.4130813014
 C          2.6500353038       -0.3627759951        3.3343805399
 C         -1.1229284834       -2.0836880102        1.5958599556
 C          1.9713069324        1.9541142754        3.5075495786
 C         -2.5775672769       -0.3396963056        0.7554078219
 C         -0.3022743842        2.2991721103        0.7913307966
 C         -2.5863671610       -1.7755163121       -2.4674247426
 C          1.3101113130        1.3646418565       -0.7565007082
 C         -0.2303795677       -2.1013589387       -2.9144084534
 C          3.8437889626        1.3392888824        2.1464483834
 C         -3.0974358597       -1.4658390505        2.8015489571
 C          0.0928460342        3.3467832245       -1.3218692277
 C         -1.4858987322       -3.7821406741       -1.7600464344
 C          2.6182604625       -4.0577304665        3.2446169291
 C          1.6180165449       -4.5075276435        2.1493900474
 C         -1.0411432275        3.5768093956        4.8584894587
 C         -2.1600919358        3.1005467069        3.8749484867
 C         -4.2449118422        2.0675315629       -1.4867671108
 C         -4.7834994972        1.1682496061       -2.6481719888
 C          3.9174732091       -0.7049337754       -2.3768071659
 C          3.3621255234       -1.5391229505       -3.5604770081
 Br         5.2498468848        1.8473091747        0.9579825269
 Br        -4.2419795261       -1.6856286151        4.3152834082
 Br        -0.3098391642        4.7323571855       -2.5682411555
 Br        -1.5586442978       -5.4747058788       -0.8765616656
 N          2.9596896956       -2.6927147514        2.9812874227
 N          0.4211959268       -3.7454394556        2.3133225658
 N          0.0340537281        2.6577244759        4.6961712937
 N         -3.9989737795        1.2217532875       -0.3623980740
 N         -1.6378059252        3.2045737842        2.5497688224
 N         -3.7375578213        0.2509809629       -2.9498940949
 N          2.9943332772        0.3548652429       -2.1155850961
 N          2.1335365617       -2.1382008368       -3.1332135968
 H          3.1005133737       -6.5599995546        4.3353296446
 H          4.4566857767       -6.9873955169        3.2872471611
 H          2.2941291924       -7.8891639144        2.4128645180
 H          3.0208556742       -6.7373199990        1.2886857487
 H         -2.5567838833        5.4547071058        6.2142228692
 H         -3.1797001574        4.3652492737        7.4574731331
 H         -4.2107817946        2.9362056589        5.7238921623
 H         -4.7808808900        4.5995981481        5.5553437452
 H         -4.7151811354        4.5173340250       -2.6817938242
 H         -6.3639387886        4.7302693537       -2.0845677259
 H         -6.3334952811        3.7307918290       -4.3738041667
 H         -7.0640601605        2.6366790936       -3.1948424556
 H          7.2170443183       -0.7648386011       -3.4072139663
 H          6.4285897103       -1.8655936175       -2.2738915287
 H          6.4121180793       -2.8403006480       -4.5464601474
 H          5.6128810792       -1.3970867978       -5.1776014853
 H          4.5629531973       -4.5929542876        3.9703970895
 H          4.3664109824       -4.7486547482        2.2223034398
 H          0.5949431958       -6.2924850441        1.5421450801
 H          0.7912348589       -6.1205472658        3.2879028859
 H         -1.8068178012        2.5086807756        6.5460513987
 H         -0.7868421507        3.8897776135        6.9609252934
 H         -3.1329817745        5.0002386296        3.7406897275
 H         -4.1651762561        3.6227772017        3.3457813925
 H         -6.1784000830        2.6323210056       -0.7682415399
 H         -4.8843315728        3.7517352724       -0.3332111355
 H         -4.1800472081        2.5066815764       -4.2035973208
 H         -5.4862874933        1.4066115042       -4.6563678089
 H          5.1369958674        0.5711478911       -3.5918859477
 H          5.6555121761        0.4612074287       -1.9081076214
 H          4.4603596768       -3.3150949377       -3.0932783297
 H          3.9561956574       -3.1978656547       -4.7807784953
 H          1.0113221279        0.3539266567        4.5337721032
 H         -0.7863074736       -0.9923476312       -0.2188396940
 H          0.8442743864        0.5304458244        1.1637126829
 H         -1.3618356484       -0.3693470800       -3.5018566135
 H          4.3228368308       -0.7585536987        2.0606773711
 H         -1.7160055730       -2.9944446508        3.4362800526
 H          3.1345089949        3.3515686125        2.3566834552
 H         -4.3096922657        0.0909525614        1.9302745064
 H         -1.2883711499        4.0868770197        0.1604856012
 H         -3.5587655646       -3.3709611851       -1.3994142471
 H          1.5279752873        2.3966669672       -2.6160999455
 H          0.6165167333       -3.9322687700       -2.2015507692
 H          1.6887822015       -1.9640014317        4.4462637578
 H          0.6619167910       -2.7127915772        0.5318231585
 H          1.1088829742        3.9494329869        3.4828476969
 H         -2.0573226163        0.8440780136       -0.9787631964
 H         -0.8913702080        1.2716699115        2.6032636132
 H         -4.6134649419       -1.2790298647       -1.8602679586
 H          2.3893155673       -0.4608790218       -0.3117510636
 H          0.9712921983       -0.6581228711       -4.0081069280
 H          2.1137849093       -4.1714424965        4.2191046937
 H          2.0861252604       -4.3296316121        1.1649656751
 H         -0.7596192579        4.6037908409        4.5671224027
 H         -2.3877078096        2.0551854539        4.1403711692
 H         -3.3147967141        2.5308054397       -1.8543402687
 H         -5.6903273231        0.6588710096       -2.2777514611
 H          4.0191638971       -1.3789774361       -1.5077878753
 H          3.2029559295       -0.8476910379       -4.4032387216
 C          1.0334614719        1.4847446851       -7.6136063227
 C          0.3503198662        1.9561060855       -6.3289706762
 O          2.3785015012        1.9293337332       -7.6564440704
 C          3.0910694932        1.4781209925       -6.5174999322
 C          2.4102995923        1.9512214218       -5.2327769728
 O          1.0637156118        1.4991822570       -5.1912834292
 H          0.5441294359        1.9067514863       -8.4912517380
 H          0.3067007610        3.0540946307       -6.3169369014
 H          3.1379664523        0.3786987126       -6.5306104163
 H          2.4287348781        3.0498264138       -5.1957215705
 H         -0.6559160114        1.5441359970       -6.2489123761
 H          4.0954446637        1.8933961737       -6.6016329483
 H          2.8970463397        1.5355397695       -4.3481883551
 H          1.0078588399        0.3858451890       -7.6634859794