142
-211.12938759
 C          4.4248018617       -6.2656707903        3.2624300819
 C          3.7007711093       -6.7016300986        1.9927560685
 C         -3.5460359500        3.5753235442        5.7880200371
 C         -4.3691391944        3.1450251927        4.5780878170
 C         -4.6431560120        3.7279008689       -3.2149922643
 C         -4.8911770663        2.8994985348       -4.4711800412
 C          7.6923684054       -0.2162723283       -2.4086315348
 C          7.4054027233       -0.9443311838       -3.7178210077
 C          4.6240713601       -4.7544660931        3.2663009112
 C          2.3605780569       -5.9862147784        1.8731298107
 C         -2.2194907872        2.8249071075        5.8240665397
 C         -3.5879904431        3.3828191630        3.2905508843
 C         -4.4332687271        2.8089906685       -2.0173587198
 C         -3.7143624703        1.9660396970       -4.7301316244
 C          6.5539797468        0.7390240414       -2.0715761000
 C          6.0841282671       -1.6989300337       -3.6261384194
 C          1.8757534150        0.4800656321        3.9212151732
 C         -0.5304132633       -1.2366982787        0.0963512104
 C          1.3186887111        1.4663135767        0.4086219333
 C          0.1680939323       -1.0893513884       -3.5268390837
 C          4.0178714292        0.1755480190        2.8627915358
 C         -1.2962667199       -2.6102438430        1.9188579859
 C          3.0753748242        2.3899438483        3.0754557853
 C         -2.7560332812       -0.9348843057        0.9648648094
 C          0.1211746949        3.4753122211       -0.1658674690
 C         -1.0533843972       -2.9857724405       -2.6827163595
 C          2.0899310485        2.8348940142       -1.4152000154
 C          1.3610133957       -3.0364794412       -2.7605729166
 C          2.7542444485       -1.8064672007        3.6488991445
 C          0.9929429046       -2.9377397363        1.0247918191
 C          0.8135388898        2.7142850652        3.9962815504
 C         -1.9710943723        0.4784022831       -0.9164517975
 C         -0.6709317011        2.0707975827        1.7191688013
 C         -2.2917487320       -0.9456458991       -3.2972962681
 C          3.3378379723        0.7756743620       -0.8265402948
 C          2.6322912294       -1.0581637618       -3.5439267548
 C          2.8933258771       -0.3644407511        3.4926847850
 C         -0.2944952179       -2.2568210190        1.0130309685
 C          1.9495324990        1.8545697067        3.6998127573
 C         -1.7533119058       -0.5711462814        0.0668345461
 C          0.2598257852        2.3421851263        0.6347765029
 C         -1.0468882526       -1.6942105202       -3.2078304208
 C          2.2382422812        1.7055288553       -0.6080541260
 C          1.3716230679       -1.7439256815       -3.2918212676
 C          4.0924989940        1.5408848548        2.6766635230
 C         -2.5051645681       -1.9423672364        1.8779906616
 C          1.0349645047        3.6956139918       -1.1799796437
 C          0.1507080120       -3.6356945414       -2.4771277589
 C          3.2864123302       -4.0241109861        3.1540175897
 C          2.5477795922       -4.4676663328        1.8650719766
 C         -1.4174203805        3.0692321480        4.5484827316
 C         -2.2631973879        2.6271930946        3.3087983295
 C         -3.2533499906        1.8719902724       -2.2516030523
 C         -3.4980097415        1.0277745514       -3.5460570594
 C          5.2234214210       -0.0087952849       -1.9648512271
 C          4.9321158660       -0.7511417394       -3.2945221501
 Br         5.6260848584        2.2811501627        1.8103146440
 Br        -3.8707375548       -2.4156538199        3.1277415474
 Br         0.8240077381        5.2326162662       -2.2952752399
 Br         0.1335325048       -5.4000153430       -1.7440194407
 N          3.5188742035       -2.6152888916        3.0526630068
 N          1.2649068348       -3.8400242246        1.8629009580
 N         -0.2441107546        2.2630743911        4.5254210616
 N         -3.1160022696        0.9556808283       -1.1650254513
 N         -1.4974535527        2.9299512485        2.1420203455
 N         -2.3225521316        0.2449334551       -3.7259265987
 N          4.1732055336        0.9363555313       -1.7575552672
 N          3.7302108332       -1.5065702142       -3.1104252744
 H          3.8365005951       -6.5570867756        4.1353764490
 H          5.3952420002       -6.7603256507        3.3294688393
 H          3.5339644786       -7.7797789143        2.0069656533
 H          4.3169478829       -6.4674377588        1.1219009173
 H         -3.3540837060        4.6494830417        5.7351502876
 H         -4.1000536811        3.3766618579        6.7068222256
 H         -4.6135161614        2.0837824035        4.6632153460
 H         -5.3050176487        3.7049851149        4.5445004371
 H         -3.7588079436        4.3540313777       -3.3553586791
 H         -5.4941487454        4.3838844536       -3.0254216123
 H         -5.0324120439        3.5548607522       -5.3321290589
 H         -5.7974900547        2.3054413354       -4.3371362187
 H          8.6237583123        0.3464234455       -2.4882159161
 H          7.8065089298       -0.9445945625       -1.6027634200
 H          8.2102620291       -1.6468813537       -3.9404809836
 H          7.3545626014       -0.2199077422       -4.5337126512
 H          5.1189354137       -4.4365687975        4.1863017735
 H          5.2516602189       -4.4542590094        2.4254470008
 H          1.8505626606       -6.2793590979        0.9535286193
 H          1.7155243427       -6.2476877597        2.7133555335
 H         -2.3938437091        1.7522130066        5.9223483774
 H         -1.6210721088        3.1492324926        6.6779067793
 H         -3.3783104875        4.4460979172        3.1634285763
 H         -4.1654828732        3.0466027071        2.4275880348
 H         -5.3253417599        2.2043329929       -1.8506449872
 H         -4.2394018091        3.3918455265       -1.1150200475
 H         -2.7998596682        2.5397059198       -4.8911570221
 H         -3.8965762904        1.3620199159       -5.6212586289
 H          6.4575589470        1.5012617738       -2.8462585513
 H          6.7464608624        1.2452483517       -1.1237639907
 H          6.1378511818       -2.4610858719       -2.8468778336
 H          5.8632838440       -2.1988063148       -4.5715079691
 H          0.9949102243        0.0862074755        4.4041482107
 H          0.2403385358       -0.9607700961       -0.6092912137
 H          1.4300705011        0.5953331503        1.0388053911
 H          0.1505119801       -0.0887516486       -3.9302314234
 H          4.8019323708       -0.4874480124        2.5338373193
 H         -1.1044306774       -3.4001685842        2.6270019910
 H          3.1462890780        3.4521875514        2.8960514479
 H         -3.7013566572       -0.4176778364        0.9307000573
 H         -0.6985621766        4.1504329984        0.0200587472
 H         -1.9861542875       -3.4668539409       -2.4295844010
 H          2.8057892266        3.0114611800       -2.2017047788
 H          2.2995198636       -3.5362021054       -2.5816275982
 H          1.9246972876       -2.1400560450        4.2875657587
 H          1.7083210124       -2.6117273675        0.2528940283
 H          0.9100374298        3.7637894138        3.6815210356
 H         -1.0666818316        0.8228727244       -1.4392453586
 H         -0.5975391241        1.0640127598        2.1562828954
 H         -3.1894025433       -1.4560851439       -2.9186784886
 H          3.3891098004       -0.0717466804       -0.1243242746
 H          2.5593878383       -0.1147657243       -4.1025029632
 H          2.6338012072       -4.2697469979        4.0088664169
 H          3.1581066312       -4.1575715302        0.9983932259
 H         -1.1886815864        4.1422929852        4.4263661550
 H         -2.4314945564        1.5426923273        3.4131254798
 H         -2.3250338700        2.4429273966       -2.4188170870
 H         -4.3938016984        0.4075193126       -3.3718877703
 H          5.2653043212       -0.7604460632       -1.1567449955
 H          4.8168372151        0.0142106868       -4.0806399951
 C         -9.5535539375        0.3562581105       -1.8738761332
 C         -8.2057830097        1.0688255606       -1.9967271662
 O        -10.5510097911        1.0471604340       -2.6063521254
 C        -10.1754149120        1.1688338934       -3.9678771887
 C         -8.8279207853        1.8815290860       -4.0924419295
 O         -7.8279191532        1.1930058416       -3.3581779020
 H         -9.8913373214        0.3393929319       -0.8376220987
 H         -8.2758276328        2.0682339531       -1.5437862278
 H        -10.1073016479        0.1691622406       -4.4212418751
 H         -8.9185062559        2.9089553799       -3.7120344817
 H         -7.4178440481        0.4937590925       -1.5097221628
 H        -10.9651407884        1.7429433951       -4.4524752794
 H         -8.4908322598        1.8971469148       -5.1290426062
 H         -9.4632072271       -0.6715322332       -2.2547808069