142
-211.12692245
 C          2.5765382440       -6.6239964384        3.4609170503
 C          1.4583900920       -7.0441783839        2.5124524068
 C         -2.7209595520        4.7177460632        6.4540101528
 C         -3.9076484389        4.3273526341        5.5788407175
 C         -6.2934937551        4.2008788768       -1.8655646663
 C         -7.0056502661        3.3153697486       -2.8830623457
 C          5.0138765297       -1.7967659839       -3.8409676642
 C          4.2522970332       -2.5966074718       -4.8929621326
 C          3.0053759470       -5.1899138435        3.1726381389
 C          0.2715979703       -6.0964853394        2.6371382250
 C         -1.5623136588        3.7496052749        6.2436672033
 C         -3.4990123362        4.2968353334        4.1103797036
 C         -5.8877572400        3.3864039364       -0.6423404218
 C         -6.1131330759        2.1489941705       -3.2917294241
 C          4.1713147233       -0.6254377015       -3.3506020429
 C          2.9265529338       -3.0912580874       -4.3261941095
 C          1.4118524324        0.5165806423        3.7009506607
 C         -2.2141400147       -1.0841878400        0.9625733830
 C          0.0425183464        1.2600928953        0.3294929446
 C         -2.5502779732       -1.4233968160       -2.7190668790
 C          3.0861453600       -0.2996513407        2.1742490911
 C         -2.6360026484       -2.0907619407        3.1081647191
 C          2.5971048573        2.0642340415        2.2863940912
 C         -4.0286465871       -0.2761173901        2.3245291158
 C         -0.9602439710        3.3895498884       -0.1806232130
 C         -3.7360014143       -2.9691078144       -1.3027943271
 C          0.4492031251        2.2892123489       -1.8083076877
 C         -1.4815432348       -3.4646417996       -2.0179509779
 C          1.8109386499       -1.9100875152        3.5635063391
 C         -0.7762301856       -2.9433214847        1.7090286666
 C          0.7707647025        2.9054583635        3.7128872241
 C         -3.6007721895        0.7593673952        0.1119047699
 C         -1.3757202798        2.3355354267        2.0256512511
 C         -4.7889635999       -0.8116675373       -1.8627068192
 C          1.4994953160        0.1047850670       -1.2903720027
 C         -0.2215817457       -1.8404838694       -3.4051145997
 C          2.1207968560       -0.5465685311        3.1540788791
 C         -1.8900387176       -2.0309750018        1.9295729897
 C          1.6293094803        1.8211274721        3.2600663385
 C         -3.2775742944       -0.2050095200        1.1519213080
 C         -0.7656450527        2.3303765486        0.7050930110
 C         -3.6946324435       -1.7613831990       -1.9981426049
 C          0.6561869151        1.2329262593       -0.9191920920
 C         -1.4383964641       -2.2575264515       -2.7207258270
 C          3.3133889704        0.9996550560        1.7682658957
 C         -3.6878992046       -1.2122544332        3.2834384722
 C         -0.3553463949        3.3443739172       -1.4231981890
 C         -2.6314198795       -3.8020159206       -1.3333398115
 C          1.8251353712       -4.2279330596        3.3018691927
 C          0.6869592462       -4.6543878692        2.3391876274
 C         -1.1300222243        3.7199849472        4.7799178993
 C         -2.3493849978        3.3202677182        3.8844923331
 C         -4.9824024170        2.2240133494       -1.0367500999
 C         -5.7121357876        1.3131386208       -2.0789645231
 C          2.8416369835       -1.1104558356       -2.7694671250
 C          2.0687921984       -1.9239665849       -3.8394416146
 Br         4.6284982973        1.3396345917        0.4246222113
 Br        -4.6982699033       -1.2841205101        4.9037010273
 Br        -0.6516691923        4.7815021786       -2.6472244382
 Br        -2.6915005973       -5.4492732998       -0.3669406956
 N          2.2376277793       -2.9107120858        2.9223948153
 N         -0.4263575015       -3.7914821060        2.5743370182
 N         -0.1457977958        2.7144819045        4.5647370595
 N         -4.6832375009        1.4138789256        0.1002578446
 N         -1.9122423560        3.3660943131        2.5260133240
 N         -4.7690788090        0.3118659693       -2.4454223542
 N          2.0429984453        0.0224054723       -2.4254263613
 N          0.8803939866       -2.4288992319       -3.2214755685
 H          2.2258405638       -6.6981363392        4.4927082092
 H          3.4340639173       -7.2894036096        3.3477424826
 H          1.1339459677       -8.0604189129        2.7414147659
 H          1.8270205577       -7.0317616840        1.4844389333
 H         -2.3986803611        5.7303834227        6.2007981267
 H         -3.0133006073        4.7098599990        7.5052469061
 H         -4.2693293786        3.3401560271        5.8752544272
 H         -4.7227403962        5.0398575974        5.7148383460
 H         -5.4023884839        4.6367391865       -2.3229405790
 H         -6.9483031447        5.0176257031       -1.5578185989
 H         -7.2673541233        3.8984394996       -3.7674635412
 H         -7.9301902390        2.9298818525       -2.4471261589
 H          5.9475413612       -1.4190914394       -4.2606027457
 H          5.2612546561       -2.4448726376       -2.9973921667
 H          4.8489924365       -3.4499505454       -5.2194889950
 H          4.0626060778       -1.9650289550       -5.7636770836
 H          3.7874173590       -4.8779330688        3.8679450090
 H          3.4043089636       -5.1113637821        2.1598942267
 H         -0.5207366790       -6.3813704324        1.9423314016
 H         -0.1378614499       -6.1333975492        3.6478045811
 H         -1.8546142050        2.7401034934        6.5373356044
 H         -0.7049054299        4.0433028436        6.8527405629
 H         -3.1809600674        5.2880195220        3.7831437768
 H         -4.3409860325        3.9893716527        3.4876567404
 H         -6.7706060501        2.9838636525       -0.1431181790
 H         -5.3523734272        4.0142941809        0.0720567525
 H         -5.2051936062        2.5173669887       -3.7720435315
 H         -6.6323697136        1.5025827467       -4.0023057920
 H          3.9566099736        0.0572367230       -4.1741888151
 H          4.7047843498       -0.0660181047       -2.5797621961
 H          3.1027441431       -3.7634826816       -3.4847300713
 H          2.3677890979       -3.6417396571       -5.0858746891
 H          0.6570253960        0.3506277893        4.4538688323
 H         -1.6413554801       -1.0337822859        0.0473996028
 H          0.2002820398        0.4462591330        1.0230187475
 H         -2.5387936655       -0.4834999612       -3.2488435672
 H          3.6307543380       -1.1305677402        1.7552223141
 H         -2.3759412208       -2.8255009451        3.8529828056
 H          2.7763445549        3.0688474238        1.9339468976
 H         -4.8538314891        0.4044417497        2.4595483873
 H         -1.5826626906        4.2164910898        0.1211781682
 H         -4.6146488622       -3.2445021985       -0.7391164140
 H          0.9264670400        2.2584738345       -2.7744745232
 H         -0.6142335871       -4.1052027250       -2.0243849427
 H          1.1572988432       -2.0072052596        4.4414126133
 H         -0.2656451121       -2.8428416188        0.7379835902
 H          0.9308863778        3.8808858193        3.2306553395
 H         -2.8386182641        0.8731774913       -0.6730310930
 H         -1.3289832609        1.3783925757        2.5657112695
 H         -5.6015351843       -1.1063662129       -1.1825887615
 H          1.6303851136       -0.6655662556       -0.5137469306
 H         -0.3200804403       -0.9642788389       -4.0608795582
 H          1.4150944907       -4.2478444808        4.3258506447
 H          1.0642798198       -4.5657962365        1.3050914374
 H         -0.7895098793        4.7163451326        4.4484776025
 H         -2.6377493208        2.2990336487        4.1833438509
 H         -4.0650445795        2.5899430010       -1.5265959673
 H         -6.6009631420        0.8881973928       -1.5810201788
 H          3.0156860409       -1.7695115275       -1.9006355773
 H          1.8358611154       -1.2371473520       -4.6707916298
 C         11.1620487542        1.5900040100       -8.8136308645
 C         12.3735102958        2.2841634857       -8.1879325396
 O         10.2873878659        1.1097988617       -7.8064942163
 C          9.8726122910        2.1681590446       -6.9587646610
 C         11.0839269797        2.8628040108       -6.3334767391
 O         11.9586533004        3.3428081529       -7.3409907052
 H         11.4680165125        0.7187226508       -9.3929290035
 H         12.9555319085        1.5547436029       -7.6061513963
 H          9.2901037788        2.8975359924       -7.5400168849
 H         11.6217006118        2.1538107319       -5.6874916835
 H         13.0033489231        2.7357299109       -8.9545342781
 H          9.2435897198        1.7164618419       -6.1916462808
 H         10.7776975224        3.7342411201       -5.7546394847
 H         10.6247376876        2.2998162944       -9.4591779097