142
-211.12678018
 C          3.0027524016       -6.7065236877        2.8830041929
 C          2.3620541055       -6.9144194354        1.5145735292
 C         -3.2843982045        4.2339504890        5.3890519872
 C         -3.9978160534        4.0890471984        4.0487992959
 C         -3.2559770579        5.3820818079       -3.3562232055
 C         -3.4674403302        4.7528095461       -4.7293502790
 C          8.1790348958       -0.5360916324       -2.0180716127
 C          7.9074566103       -1.0964542567       -3.4103699270
 C          3.4759460190       -5.2653600655        3.0327750179
 C          1.1995561812       -5.9485353961        1.3204608195
 C         -2.1226675030        3.2514167834        5.4821734821
 C         -3.0211380492        4.3103629505        2.8994205766
 C         -3.3501785813        4.3215826619       -2.2652117786
 C         -2.4440985705        3.6494148660       -4.9721801317
 C          7.1719601798        0.5562612793       -1.6795288885
 C          6.4850644663       -1.6376943113       -3.4952153764
 C          1.6848300409        0.3533835479        3.8259256009
 C         -0.5183606432       -0.5727185392       -0.2446726827
 C          1.8445064014        1.8773934634        0.3581778690
 C          0.7430055270       -0.1023046970       -3.7850106195
 C          3.8481831701       -0.2921038063        2.9876878967
 C         -1.7611314927       -1.9565721946        1.2835774647
 C          3.3206798519        2.0443501569        3.3100808705
 C         -2.7588980874        0.0519865286        0.3804562562
 C          1.0640925484        4.1148763275       -0.0723801281
 C         -0.8271656149       -1.8546070674       -3.2700912050
 C          3.0487059244        3.2868682476       -1.1775351165
 C          1.5487994652       -2.2794814523       -3.1446874846
 C          2.1472906308       -2.0369444785        3.4501617268
 C          0.5354491137       -2.6225935871        0.6335666421
 C          1.0600843062        2.7395464062        4.0086967821
 C         -1.4864731416        1.4770500567       -1.2000479943
 C         -0.1771625173        2.6695756683        1.5145586269
 C         -1.6771646426        0.4077637831       -3.7608383073
 C          3.8750605022        0.9942325131       -0.7280103051
 C          3.1731473955       -0.4622041513       -3.6047069602
 C          2.5717253771       -0.6430680664        3.4355904841
 C         -0.5958781199       -1.7085496389        0.5557385934
 C          2.0436079448        1.6983695381        3.7496484855
 C         -1.5917106433        0.3099566156       -0.3376215908
 C          0.9182288148        2.8928613084        0.5832285672
 C         -0.5745419552       -0.5350049980       -3.6425355977
 C          2.9136146384        2.0668482213       -0.5123723093
 C          1.8058462140       -0.9597003620       -3.5256839156
 C          4.2013506581        1.0414527358        2.9442734144
 C         -2.8174884236       -1.0716055038        1.1840775863
 C          2.1212982569        4.2847626558       -0.9471707549
 C          0.2399737653       -2.7038961895       -3.0354125072
 C          2.3190716232       -4.2843629738        2.8473653089
 C          1.6616195964       -4.4968502500        1.4586373684
 C         -1.1248789696        3.4694575340        4.3475207285
 C         -1.8575274986        3.3267566649        2.9722203803
 C         -2.3232284356        3.2157399801       -2.4868581651
 C         -2.5319700897        2.5693939140       -3.8968193097
 C          5.7389940607        0.0258182710       -1.7526641288
 C          5.4627252507       -0.5508119907       -3.1658135500
 Br         5.9453005674        1.5246810601        2.3291517215
 Br        -4.4058155475       -1.4027935068        2.1932608815
 Br         2.2961533282        5.9480283454       -1.8718021715
 Br        -0.1147417216       -4.5074377807       -2.5117470167
 N          2.8205116720       -2.9442050256        2.8861119674
 N          0.5238264746       -3.6373490771        1.3824823654
 N         -0.1234514021        2.4583231053        4.3585423612
 N         -2.4888142304        2.1801176135       -1.5186143923
 N         -0.9010739944        3.6106177438        1.9512022869
 N         -1.4785029574        1.6245482990       -4.0477600246
 N          4.8315197292        1.1081349433       -1.5421924459
 N          4.1495935736       -1.1206545448       -3.1491502741
 H          2.2742167846       -6.9332298595        3.6646345440
 H          3.8509216504       -7.3820000358        3.0065515382
 H          1.9992011077       -7.9391811157        1.4216786706
 H          3.1066689108       -6.7484763263        0.7330250352
 H         -2.9070757718        5.2538373819        5.4931357891
 H         -3.9828399920        4.0476076341        6.2064087827
 H         -4.4279821749        3.0879316210        3.9718511228
 H         -4.8118691545        4.8121586942        3.9783417690
 H         -2.2714604547        5.8539144836       -3.3198060545
 H         -4.0065474266        6.1539067832       -3.1788446079
 H         -3.3725992596        5.5120773790       -5.5072537924
 H         -4.4746186951        4.3337771683       -4.7873814619
 H          9.1881554881       -0.1240679083       -1.9694007163
 H          8.1067054199       -1.3382954907       -1.2804837421
 H          8.6146075059       -1.8960282942       -3.6373999725
 H          8.0410481713       -0.3068844627       -4.1532217216
 H          3.9118987892       -5.1071053873        4.0213454334
 H          4.2406279077       -5.0398277657        2.2875694622
 H          0.7545214665       -6.0784226729        0.3320761810
 H          0.4249283323       -6.1339459637        2.0661502772
 H         -2.4896517676        2.2253032985        5.4255271052
 H         -1.5981694024        3.3701739056        6.4325193152
 H         -2.6192361263        5.3243347084        2.9317430890
 H         -3.5259316620        4.1768167823        1.9410133027
 H         -4.3448583040        3.8730231585       -2.2557692827
 H         -3.1707055383        4.7675360004       -1.2853633856
 H         -1.4338861114        4.0619842370       -4.9639215004
 H         -2.6101773624        3.1831536026       -5.9455350805
 H          7.2655889955        1.3876472986       -2.3798971046
 H          7.3484034740        0.9411943566       -0.6732701154
 H          6.3516239242       -2.4602779471       -2.7906060071
 H          6.2796911802       -2.0167549714       -4.4984592059
 H          0.6913737544        0.1082759293        4.1681663746
 H          0.3808610097       -0.3745405355       -0.8107145827
 H          1.7335175326        0.9350660039        0.8758476895
 H          0.9157255443        0.9229917737       -4.0733185306
 H          4.5288241089       -1.0715993272        2.6847381713
 H         -1.8107189941       -2.8370063108        1.9037181273
 H          3.6135378329        3.0814986835        3.2457248374
 H         -3.5863250299        0.7381770457        0.2974101851
 H          0.3453326515        4.8968403175        0.1127316849
 H         -1.8420267185       -2.2047321337       -3.1558296638
 H          3.8774433258        3.4231079470       -1.8534143384
 H          2.3792381558       -2.9371771760       -2.9434728587
 H          1.1939820918       -2.2390171530        3.9579599059
 H          1.3959039586       -2.3696351156       -0.0059324208
 H          1.3918307619        3.7730420753        3.8317921767
 H         -0.4730823347        1.7016399735       -1.5636903015
 H         -0.3274722097        1.6236626071        1.8197232712
 H         -2.6781670375        0.0118580121       -3.5356862589
 H          3.7117880907        0.0825739175       -0.1316868010
 H          3.2925438437        0.5311577661       -4.0591215716
 H          1.5388646298       -4.4506157194        3.6093112805
 H          2.4129267807       -4.2538235501        0.6868023035
 H         -0.6952539393        4.4854271224        4.3887023287
 H         -2.2180236266        2.2864740407        2.9133097262
 H         -1.2986867589        3.6229427689       -2.4752808104
 H         -3.5270114389        2.0916051752       -3.8965343580
 H          5.5879870569       -0.7858801776       -1.0194415817
 H          5.5358648976        0.2851153504       -3.8819188832
 C        -12.1335400822       -5.8593644120       -1.7433550915
 C        -13.4509613755       -5.8451403255       -0.9654523036
 O        -11.3594388607       -4.7127790076       -1.4331109797
 C        -11.1132688586       -4.6390876251       -0.0383990049
 C        -12.4302821922       -4.6258295383        0.7401079012
 O        -13.2054441513       -5.7716910330        0.4289077269
 H        -12.3145240658       -5.8238469907       -2.8177742565
 H        -14.0534423807       -4.9800940936       -1.2785508549
 H        -10.5097534720       -5.5034466225        0.2741633884
 H        -12.9980876494       -3.7187324850        0.4871301002
 H        -14.0103171998       -6.7664319911       -1.1286816442
 H        -10.5542933794       -3.7176358534        0.1249019716
 H        -12.2482267285       -4.6631370334        1.8141926534
 H        -11.5658042186       -6.7659673766       -1.4884116992