142
-211.12652786
 C          0.8035028730       -7.5149544293        1.1500084456
 C          0.7204624344       -7.4505137601       -0.3715327232
 C         -6.1068967902        3.1619253422        3.0837758152
 C         -6.2769077757        3.2817003893        1.5728748071
 C         -2.9292942081        5.7466212291       -4.7313540934
 C         -2.5900698344        5.3636073775       -6.1681385169
 C          7.3951098456       -0.7405866319       -0.3055254536
 C          7.6698392767       -1.0380672976       -1.7759774488
 C          1.1677101661       -6.1484706180        1.7186466788
 C         -0.3000299139       -6.4045977593       -0.8033197382
 C         -5.0461867095        2.1195237213        3.4180676000
 C         -4.9503944382        3.6454071659        0.9157342874
 C         -3.3917026325        4.5223188146       -3.9496598581
 C         -1.5150392543        4.2831716517       -6.1902247952
 C          6.3037212397        0.3144105315       -0.1725378190
 C          6.3941049662       -1.5010890499       -2.4698029429
 C         -0.8615670015       -0.6535892675        2.7771386217
 C         -1.4031744904       -0.7557147617       -1.8914015063
 C          0.5610884367        1.4701584029       -0.0529902928
 C          1.1136468316        0.2740180712       -4.5646238327
 C          1.4658944888       -1.2667349588        2.6988427264
 C         -3.0986134956       -2.3198557902       -1.2024687801
 C          0.8276160870        1.0064128816        3.2158304351
 C         -3.7272128048       -0.1403600349       -2.0385765168
 C         -0.0628906585        3.7787248940       -0.3405693941
 C         -0.4802078682       -1.4831763446       -4.9807788543
 C          2.2115831721        3.0743730407       -0.7588001770
 C          1.6928495864       -2.0089340363       -4.0626481600
 C         -0.2633123425       -2.9678322813        2.1807879478
 C         -0.7136898650       -2.9771189469       -1.0691828391
 C         -1.5390977646        1.6970318002        3.1418186739
 C         -1.9872684055        1.4701981967       -2.7624966560
 C         -1.7651983538        2.1348153058        0.3971167914
 C         -1.1572515374        0.8589136496       -5.3521188136
 C          2.8740952760        0.7077623203       -0.4459450433
 C          3.3168486319       -0.2000829837       -3.5696170499
 C          0.1189350992       -1.6171136437        2.5717798167
 C         -1.7512158534       -2.0074329047       -1.3925564280
 C         -0.5168065125        0.6625722221        3.0812611137
 C         -2.3819317335        0.1799404100       -2.2175867707
 C         -0.4088851226        2.4687267065       -0.0109368002
 C         -0.1489617503       -0.1289650241       -4.9969676960
 C          1.8718157829        1.7641057672       -0.4168502469
 C          2.0316180935       -0.6532647376       -4.0855279668
 C          1.7933146457        0.0328284898        3.0290229280
 C         -4.0589853929       -1.3805192507       -1.5250696058
 C          1.2384870099        4.0542507730       -0.7176832282
 C          0.4503032568       -2.3982984744       -4.5204554505
 C          0.1493459551       -5.0888186887        1.3002334855
 C          0.0560607441       -5.0249369215       -0.2469494346
 C         -3.7047557787        2.4751001814        2.7818197430
 C         -3.8779903554        2.6078335178        1.2325343479
 C         -2.3239684501        3.4328689179       -3.9537647521
 C         -1.9668349981        3.0413001573       -5.4258720148
 C          5.0132790350       -0.1387393320       -0.8574765860
 C          5.2910372640       -0.4502683700       -2.3516104032
 Br         3.6349109759        0.5152578706        3.2027161663
 Br        -5.9021668418       -1.8016730043       -1.2467358573
 Br         1.6995218028        5.8437596544       -1.2046642126
 Br        -0.0163011185       -4.2515315228       -4.4896744945
 N          0.5834153370       -3.8041478450        1.7586217209
 N         -0.9859044750       -4.1071758847       -0.5797194697
 N         -2.7640611978        1.4249662515        2.9762796994
 N         -2.8131029305        2.2558561337       -3.3110086060
 N         -2.6184181973        3.0179914464        0.7005359014
 N         -0.9046625001        2.0989736854       -5.3281776420
 N          4.0624085546        0.9253245416       -0.8084356856
 N          4.0803456520       -0.9647140428       -2.9161198464
 H         -0.1604040330       -7.8320827800        1.5542550212
 H          1.5537830763       -8.2467528479        1.4540822567
 H          0.4325267548       -8.4231030943       -0.7735039243
 H          1.6997605491       -7.1932990803       -0.7808832353
 H         -5.8087178215        4.1289873927        3.4951950239
 H         -7.0535320032        2.8763838502        3.5452194029
 H         -6.6329728533        2.3307961398        1.1701689929
 H         -7.0196973200        4.0460793324        1.3393930095
 H         -2.0460283404        6.1724343102       -4.2500021063
 H         -3.7161139502        6.5024997705       -4.7214828301
 H         -2.2353726266        6.2388260372       -6.7147328555
 H         -3.4877550042        4.9936440875       -6.6688281138
 H          8.3037018005       -0.3832912567        0.1815335333
 H          7.0793260393       -1.6556702395        0.2001034671
 H          8.4336971085       -1.8122416445       -1.8658101937
 H          8.0439092624       -0.1365335364       -2.2662829297
 H          1.2034437481       -6.1856771372        2.8093609615
 H          2.1512165266       -5.8404791090        1.3597968945
 H         -0.3432527318       -6.3385107655       -1.8921618169
 H         -1.2937286576       -6.6735739216       -0.4418253984
 H         -5.3517152798        1.1381388254        3.0515423781
 H         -4.9088617467        2.0482370953        4.4990035434
 H         -4.6048988359        4.6181004294        1.2696206424
 H         -5.0661701341        3.7012187125       -0.1681010815
 H         -4.3036562267        4.1136428268       -4.3878898989
 H         -3.6052310346        4.7914876537       -2.9137094513
 H         -0.5965316471        4.6540629803       -5.7324303517
 H         -1.2866561395        3.9933416408       -7.2179413372
 H          6.6246002920        1.2507003090       -0.6317311160
 H          6.0872739014        0.5108915154        0.8793140836
 H          6.0352514777       -2.4283373095       -2.0200111450
 H          6.5823064968       -1.6909283206       -3.5285204099
 H         -1.9078625756       -0.8975311165        2.6776023773
 H         -0.3619255672       -0.5065276034       -2.0397539748
 H          0.2907485046        0.4576181619        0.2115128903
 H          1.3489307933        1.3268243120       -4.5858365915
 H          2.2199442123       -2.0199384080        2.5352117001
 H         -3.3582042904       -3.2904352340       -0.8116182356
 H          1.1106955614        2.0212176814        3.4516037441
 H         -4.4775323504        0.5888024052       -2.2987797523
 H         -0.8198927874        4.5453693439       -0.3004926601
 H         -1.4536593458       -1.8110868776       -5.3130972120
 H          3.2283954602        3.2914379805       -1.0436798272
 H          2.4102931878       -2.7211212464       -3.6875002170
 H         -1.3352093514       -3.1987057981        2.2528403690
 H          0.3186411651       -2.6597026190       -1.2853670853
 H         -1.1786213571        2.7257570431        3.2876008303
 H         -0.9178444057        1.7109223342       -2.6735218845
 H         -1.9944568392        1.0597965386        0.4325438103
 H         -2.1563943329        0.4659751360       -5.5905162593
 H          2.5260657334       -0.2876185928       -0.1277055672
 H          3.5627286533        0.8531372892       -3.7640114268
 H         -0.8555427075       -5.3398730208        1.6797297400
 H          1.0358915956       -4.6922264770       -0.6321299355
 H         -3.3341244298        3.4448733351        3.1568477943
 H         -4.1718577715        1.6121638782        0.8611531015
 H         -1.3920213749        3.7935171238       -3.4879138837
 H         -2.8733277799        2.6054360592       -5.8805819340
 H          4.6259250441       -1.0587325416       -0.3855782364
 H          5.5968994860        0.4941393677       -2.8327250605
 C          1.5084308684       -1.9528400051       13.4113075928
 C          2.6705779019       -0.9790788918       13.6162206561
 O          0.6799634480       -1.5225507373       12.3438213693
 C          1.4332232396       -1.3869965773       11.1505886398
 C          2.5954330252       -0.4131349306       11.3556426076
 O          3.4235280064       -0.8436133406       12.4224294436
 H          0.8713814507       -1.9915663601       14.2949313455
 H          2.2786689025        0.0033584696       13.9168094192
 H          1.8255271003       -2.3693290187       10.8499673905
 H          2.2006007802        0.5888502489       11.5780483791
 H          3.3622115913       -1.3507476563       14.3722635876
 H          0.7420206149       -1.0156061754       10.3938257729
 H          3.2319423219       -0.3739652593       10.4715437920
 H          1.9029410169       -2.9548300883       13.1889121853