142
-211.12675454
 C          8.2952028495       -0.0830906473        2.0319529015
 C          8.9151519178        0.2524349472        0.6793894987
 C         -5.9609868945        1.5343002725        1.8838051463
 C         -6.0423531781        0.8525031560        3.2457493837
 C         -1.2056968526        6.9881179272       -3.5335142245
 C         -1.8632941458        6.7529899111       -2.1775509980
 C          3.0453596196       -7.3266985472       -0.7314402315
 C          3.2376116249       -6.6634834592       -2.0914306558
 C          7.0281284647        0.7340589679        2.2527993383
 C          7.9131806077       -0.0021410011       -0.4407674118
 C         -4.6327045402        2.2674833280        1.7344311901
 C         -4.8781095362       -0.1146313954        3.4266917504
 C          0.0256850485        6.1029791672       -3.6883435442
 C         -2.2403492822        5.2847110248       -2.0164564608
 C          3.0324544694       -6.2764847468        0.3732883447
 C          2.1389444051       -5.6378385161       -2.3425034186
 C          1.2682443367        1.2122305892        1.3710322199
 C          2.9480593619        2.0158078128       -3.0260324400
 C         -0.1841481627       -1.9279066954        2.8531616138
 C          0.2456908549       -0.1611387953       -1.5566012914
 C          2.7042444263        3.1179137438        1.6897416499
 C          3.8031047671       -0.2229758416       -3.2637623943
 C          0.3026207206        3.3798375785        1.7836026011
 C          1.7960280750        0.4391307795       -4.4359969854
 C          1.0372855682       -0.4011049308        4.2595853606
 C         -2.0888219561        0.2340412620       -1.9986642145
 C          2.1930773811       -2.1970826535        3.1282206154
 C         -1.2433450906       -2.0270634212       -1.8679057470
 C          3.7127680711        0.8899555367        1.2917637749
 C          4.9528822748        1.3692946454       -1.7493040646
 C         -1.1809554480        1.4181411044        1.4691042480
 C          0.8074464931        2.6698647416       -4.0781837016
 C         -1.3645937383       -0.0043369206        3.8642481420
 C         -0.5586019118        2.1600431539       -1.6918940413
 C          0.9567648917       -3.7271133670        1.6172784942
 C          1.1595427314       -2.4494918509       -1.4368546448
 C          2.5488791677        1.7505653773        1.4542639411
 C          3.8989223952        1.0542618616       -2.7047520740
 C          0.1434119610        2.0170065310        1.5353272134
 C          1.8842759509        1.7121376742       -3.8743526546
 C         -0.1659817035       -0.8106564811        3.6868232435
 C         -0.8100046387        0.7278338168       -1.7433724248
 C          0.9875970574       -2.6145980064        2.5576572133
 C          0.0407156876       -1.5359928003       -1.6246336827
 C          1.5799681721        3.9055138184        1.8461342816
 C          2.7622060876       -0.5018955538       -4.1261172184
 C          2.1928134247       -1.1077388327        3.9757264062
 C         -2.2823621732       -1.1341336711       -2.0464112862
 C          6.0090836796        0.4788070678        1.1406481446
 C          6.6393923835        0.8165796019       -0.2354453548
 C         -3.4573330764        1.3096166110        1.9010402584
 C         -3.5386714919        0.6062164246        3.2962726576
 C         -0.3367990246        4.6267858751       -3.5465067965
 C         -1.0156048331        4.3864673499       -2.1578024644
 C          1.9290669411       -5.2459358127        0.1380444959
 C          2.1209052288       -4.5717653148       -1.2454187839
 Br         1.7933463765        5.7800156350        2.1503110702
 Br         2.6271798353       -2.2483745070       -4.8902018669
 Br         3.8399003005       -0.5332120893        4.7559753075
 Br        -4.0430961936       -1.8073511441       -2.3587805440
 N          4.8888091632        1.3440848809        1.3287173627
 N          5.6825225602        0.4718476590       -1.2427211975
 N         -2.2214827430        2.0234169511        1.8578653029
 N          0.8352768287        3.8190813085       -3.5487175020
 N         -2.4630676999       -0.3252996718        3.3236036909
 N         -1.3977771174        3.0118126272       -2.1043880079
 N          2.0135161032       -4.2192553213        1.1319680842
 N          1.0094803744       -3.7015292648       -1.4607719297
 H          8.0522583261       -1.1472262553        2.0691390446
 H          9.0050233547        0.1282556917        2.8331502574
 H          9.8065493302       -0.3551234100        0.5144289413
 H          9.2155334552        1.3025338491        0.6668903696
 H         -6.0520181898        0.7839987699        1.0951421496
 H         -6.7824501634        2.2435369718        1.7710618819
 H         -6.0130456666        1.6080050199        4.0342549481
 H         -6.9833732437        0.3075315762        3.3356555151
 H         -1.9189369552        6.7608091692       -4.3291404406
 H         -0.9139292960        8.0350084382       -3.6310266707
 H         -2.7579977777        7.3704625018       -2.0838407791
 H         -1.1708484386        7.0391755056       -1.3826809878
 H          3.8498042707       -8.0401950551       -0.5451545659
 H          2.1002428022       -7.8742405655       -0.7236328954
 H          3.2167606443       -7.4151793301       -2.8819788115
 H          4.2106952579       -6.1685906187       -2.1227685813
 H          6.5695761272        0.4782754767        3.2098888825
 H          7.2622384961        1.7996589973        2.2651888213
 H          8.3457817040        0.2628882455       -1.4077101958
 H          7.6417668133       -1.0587032345       -0.4715631207
 H         -4.5463678578        3.0548566044        2.4849685379
 H         -4.5632880801        2.7310137666        0.7487651846
 H         -4.9200378905       -0.9024275543        2.6727638729
 H         -4.9235231227       -0.5862586539        4.4105025376
 H          0.7673922077        6.3502475020       -2.9270875203
 H          0.4838024731        6.2550766196       -4.6678294802
 H         -2.9710460441        4.9944104218       -2.7731163993
 H         -2.6837639962        5.1115726886       -1.0342863453
 H          3.9897607483       -5.7537508904        0.4084831319
 H          2.8691853555       -6.7464403151        1.3453204851
 H          1.1631150719       -6.1255406890       -2.3624747698
 H          2.2889232569       -5.1439392634       -3.3044524341
 H          1.1407883676        0.1546491293        1.1879109290
 H          2.9968094620        3.0067587038       -2.6019946219
 H         -1.1261470730       -2.2268728415        2.4202550999
 H          1.2371499066        0.2256852445       -1.3678399130
 H          3.7000764543        3.5266641593        1.7484589102
 H          4.5443018106       -0.9630303070       -3.0076172207
 H         -0.5739050074        3.9936783604        1.9148854367
 H          0.9783000183        0.1887409063       -5.0949374901
 H          1.0677526001        0.4621671197        4.9072062359
 H         -2.8984460470        0.9304444164       -2.1464822724
 H          3.0973572375       -2.7350657925        2.8925881896
 H         -1.3930408052       -3.0936345184       -1.9149560837
 H          3.4958010502       -0.1793628729        1.1402036303
 H          5.0480158675        2.4297462139       -1.4775668441
 H         -1.2130166842        0.3949961570        1.0667322957
 H         -0.0482197819        2.3158300917       -4.6715544682
 H         -1.2437922613        0.9197006745        4.4482762637
 H          0.4184839580        2.4505829752       -1.2788624787
 H         -0.0433917335       -4.0857501780        1.3370313100
 H          2.1403463891       -1.9738963194       -1.2780213196
 H          5.7097233577       -0.5839706145        1.1258773930
 H          6.8638257013        1.8966722619       -0.2382592739
 H         -3.4913910196        0.5102838938        1.1425932379
 H         -3.4344922681        1.3891367245        4.0674798629
 H         -1.0577133551        4.3205855070       -4.3243546095
 H         -0.2603399029        4.6281843792       -1.3919242879
 H          0.9372857077       -5.7290512011        0.1337473802
 H          3.0772368256       -4.0201185681       -1.2251546796
 C        -13.0362946540       -3.4781402639        0.1865431820
 C        -12.6160788243       -4.0362775756        1.5477389625
 O        -14.2876631737       -4.0158165349       -0.2077361785
 C        -15.2781209392       -3.7441119841        0.7695752445
 C        -14.8579984773       -4.3027848412        2.1306186515
 O        -13.6068964894       -3.7651068652        2.5252894327
 H        -12.3240694269       -3.7624427846       -0.5881306573
 H        -12.4654700101       -5.1226830501        1.4691031156
 H        -15.4280912808       -2.6575839969        0.8485420039
 H        -14.7848977550       -5.3984194589        2.0715229733
 H        -11.7015989622       -3.5586033310        1.8994267420
 H        -16.1929690548       -4.2211015286        0.4177384971
 H        -15.5702442145       -4.0189770349        2.9055210861
 H        -13.1092981383       -2.3824970185        0.2449446683