142
-211.12931209
 C          0.5390177282       -6.8730227786        1.6249616906
 C          0.0765489971       -6.7558956109        0.1763104120
 C         -3.9020884061        4.7689250724        5.0011592414
 C         -4.4372929628        4.9017689926        3.5789395686
 C         -2.2407121253        6.8176876540       -3.7388690075
 C         -2.3955125627        6.3673598390       -5.1880215153
 C          7.0967203189       -1.9335851627       -1.4960144045
 C          6.9547366587       -2.2602160067       -2.9791042173
 C          1.2486315012       -5.5957564070        2.0589078376
 C         -0.8444990857       -5.5532846739        0.0123476992
 C         -2.9845171472        3.5567045827        5.1151790555
 C         -3.2864567688        5.0084450223        2.5846861505
 C         -2.7084190932        5.7221012709       -2.7873355770
 C         -1.6165042453        5.0799188319       -5.4327907043
 C          6.3293856892       -0.6615784591       -1.1562684648
 C          5.4838689957       -2.4082746480       -3.3508590059
 C          0.4127431381        0.1067960436        3.5432553900
 C         -1.2504964056        0.1702643418       -1.0257887979
 C          1.2364697384        1.7478870838        0.3562764711
 C          0.4134246230        0.5570419080       -4.2826326838
 C          2.5212799686       -0.8498808642        2.8799220736
 C         -2.9159162062       -1.0266795573        0.2342451916
 C          2.3835549353        1.4897132976        3.4662903848
 C         -3.3621167959        1.2207321926       -0.5399326445
 C          1.0437378984        4.1337528398        0.0911576842
 C         -1.5926328597       -0.7741080251       -4.2074245640
 C          2.9204366533        2.9516863792       -0.8723207649
 C          0.5585408964       -1.8013042445       -3.8147245194
 C          0.4847651626       -2.2616884800        2.8632671967
 C         -0.7501527050       -2.1226622063       -0.2736323100
 C          0.2122163510        2.5358155390        3.9742341876
 C         -1.6460047120        2.4551767694       -1.8390178818
 C         -0.6915081487        2.8952331127        1.3595170688
 C         -1.7887124505        1.6621424978       -4.5166688892
 C          3.1340607117        0.4969620913       -0.5982278798
 C          2.6206822413       -0.4264418205       -3.7979943094
 C          1.1515818511       -0.9912859369        3.1183306855
 C         -1.6521590393       -0.9822267514       -0.3573016515
 C          1.0157138046        1.3540250186        3.7000833101
 C         -2.0952414686        1.2733738104       -1.1198232395
 C          0.5401817101        2.9317058660        0.5868384535
 C         -0.9745793408        0.4643318793       -4.3754350632
 C          2.4252067562        1.7481734749       -0.3671228222
 C          1.1822775817       -0.5626354537       -3.9867149349
 C          3.1122214403        0.3826399171        3.0691543464
 C         -3.7441146379        0.0746913381        0.1329479586
 C          2.2205635866        4.1191105742       -0.6346704069
 C         -0.8132376472       -1.8854593650       -3.9392816704
 C          0.3306209059       -4.3841441983        1.9046731676
 C         -0.1357425302       -4.2637536746        0.4312455618
 C         -1.8173798828        3.6585995443        4.1366831326
 C         -2.3713696663        3.7919813781        2.6794580003
 C         -1.9254469356        4.4329577862       -3.0139638785
 C         -2.0880312464        3.9683122930       -4.4988800613
 C          4.8483560806       -0.8022377321       -1.5141759313
 C          4.7036635972       -1.1362898069       -3.0210828019
 Br         4.9831306736        0.5803377391        2.7359487515
 Br        -5.4666681812        0.0201363552        0.9574052440
 Br         2.8913443140        5.7636236872       -1.3392116233
 Br        -1.6692500262       -3.5764627350       -3.6979197166
 N          1.0539410878       -3.1911710663        2.2257335517
 N         -1.0562920209       -3.1751805579        0.3499936575
 N         -1.0396601420        2.4661482121        4.1484366608
 N         -2.4293780242        3.3872141016       -2.1819458323
 N         -1.2499426136        3.9381474330        1.8076154232
 N         -1.2704554760        2.8107657237       -4.6358003248
 N          4.1925526812        0.4450017717       -1.2818769144
 N          3.3122856687       -1.3483465445       -3.2821829915
 H         -0.3260617446       -7.0417365124        2.2690504770
 H          1.2181721982       -7.7205648605        1.7341525556
 H         -0.4550054029       -7.6606091683       -0.1223975453
 H          0.9435125379       -6.6423172918       -0.4788320839
 H         -3.3464374654        5.6711124761        5.2672272256
 H         -4.7303927282        4.6636483916        5.7036208493
 H         -5.0463566314        4.0281006525        3.3360854686
 H         -5.0703369873        5.7868913483        3.4991536726
 H         -1.1916531898        7.0476309053       -3.5393230418
 H         -2.8234191288        7.7236511801       -3.5649525375
 H         -2.0315215344        7.1447518948       -5.8616819216
 H         -3.4525811464        6.1991523084       -5.4065736385
 H          8.1488339735       -1.7991804433       -1.2401931473
 H          6.7082763337       -2.7626292156       -0.9004364939
 H          7.4831905967       -3.1863555403       -3.2113802385
 H          7.4009184721       -1.4591729429       -3.5726499381
 H          1.5589151927       -5.6675237306        3.1032855573
 H          2.1414170307       -5.4317558641        1.4524230349
 H         -1.1664416665       -5.4541132099       -1.0261474609
 H         -1.7334491876       -5.6726370738        0.6332212912
 H         -3.5377219324        2.6414167429        4.8985376677
 H         -2.5829616996        3.4768835389        6.1274866343
 H         -2.6946610471        5.9037865083        2.7818173228
 H         -3.6693856891        5.0746402989        1.5647610338
 H         -3.7690534156        5.5144204085       -2.9377449155
 H         -2.5688510001        6.0335820337       -1.7505832767
 H         -0.5510424388        5.2441038308       -5.2637961153
 H         -1.7470904381        4.7457388342       -6.4641301140
 H          6.7369259183        0.1857089047       -1.7098609550
 H          6.4110964243       -0.4376608879       -0.0909580832
 H          5.0370663818       -3.2383186284       -2.8009427661
 H          5.3783795780       -2.6154829089       -4.4177786162
 H         -0.6472204177        0.0240113570        3.7272061481
 H         -0.2736989050        0.2098665206       -1.4866666746
 H          0.8500402228        0.8195787432        0.7525501126
 H          0.8714746458        1.5251218871       -4.4139795824
 H          3.0857293310       -1.7072359111        2.5499946467
 H         -3.2175463048       -1.9221200577        0.7534079944
 H          2.8642297554        2.4494250659        3.5823715432
 H         -4.0121987859        2.0767165658       -0.6232172118
 H          0.5007952090        5.0459395807        0.2795473736
 H         -2.6666013484       -0.8613650623       -4.2748342930
 H          3.8410296744        2.9425634006       -1.4332857012
 H          1.1631691157       -2.6641392009       -3.5856765673
 H         -0.5490883995       -2.3416581654        3.2262225596
 H          0.2138474163       -2.0021191754       -0.7936744037
 H          0.7497410854        3.4954258467        3.9622338934
 H         -0.5714869510        2.4771704785       -2.0737904760
 H         -1.1013569682        1.8897990829        1.5359888010
 H         -2.8768889250        1.5133121812       -4.4565774101
 H          2.6832178128       -0.3954666561       -0.1356496105
 H          3.0529726811        0.5378166163       -4.0990605697
 H         -0.5715878267       -4.4980680166        2.5285441332
 H          0.7569018254       -4.0916545641       -0.1965648587
 H         -1.2081517601        4.5560983323        4.3416642949
 H         -2.9290547946        2.8645909439        2.4692638039
 H         -0.8472446787        4.5955673055       -2.8517994740
 H         -3.1571443046        3.7452895006       -4.6600254832
 H          4.3868939108       -1.6227454704       -0.9365369554
 H          5.0991606918       -0.2769200737       -3.5886364341
 C         -2.6643973419       -8.9488147157        3.2713052191
 C         -3.6855011080       -9.5332370710        4.2484847023
 O         -2.0662827686       -7.7815979142        3.8123789414
 C         -1.4593173539       -8.0642844293        5.0624083423
 C         -2.4822942245       -8.6484268711        6.0380335622
 O         -3.0758479222       -9.8163332778        5.4969968723
 H         -3.1461369553       -8.6434683194        2.3424619621
 H         -4.5072936018       -8.8173438121        4.3947985313
 H         -0.6382984277       -8.7810436939        4.9173432045
 H         -3.2624533933       -7.9014176671        6.2449126196
 H         -4.0794524606      -10.4802010600        3.8794993827
 H         -1.0651139921       -7.1175531819        5.4323297060
 H         -2.0031728297       -8.9523369775        6.9688305001
 H         -1.8851444664       -9.6956295028        3.0622974885