142
-211.12705810
 C          3.6595226067       -6.8803426565        2.0479821949
 C          3.5437635899       -6.9769533227        0.5302113987
 C         -5.7304551273        1.8898043783        3.4121981684
 C         -5.9756364430        1.7824600526        1.9104146200
 C         -3.2590497277        4.3357645164       -5.0574662973
 C         -2.8912147178        3.8596845430       -6.4591994117
 C          8.1293234379        0.4488026513       -0.2032940645
 C          8.4688581089        0.0721420363       -1.6417964085
 C          3.6658960489       -5.4206980497        2.4872371738
 C          2.2838729248       -6.2685581962        0.0474878586
 C         -4.4427031998        1.1694775201        3.7959694375
 C         -4.7931022540        2.3513344915        1.1343321435
 C         -3.4223115605        3.1473179563       -4.1164959396
 C         -1.6132859256        3.0291821073       -6.4222040501
 C          6.8484293879        1.2730785875       -0.1579166078
 C          7.3150085881       -0.6966353120       -2.2752735359
 C          0.3036032811       -0.5647330040        3.1843953798
 C         -0.2098418345       -1.2514569172       -1.5885094897
 C          1.0200573509        1.2770981426        0.0806606088
 C          1.8106445104       -0.1911791323       -4.4745840275
 C          2.7078074571       -0.5635277798        3.0372214400
 C         -1.4604869921       -3.0576153454       -0.6045253913
 C          1.5130455557        1.5105881949        3.3646692235
 C         -2.6170280262       -1.2089572189       -1.6494671481
 C         -0.0840855333        3.3489234272       -0.4560823583
 C          0.5781020608       -2.2518262312       -4.6648257585
 C          2.2719179376        3.0707930545       -0.9242988467
 C          2.8198522699       -2.2594100033       -3.7636528965
 C          1.4718094515       -2.6933780485        2.7592060538
 C          1.0169661291       -3.1181755588       -0.5453315840
 C         -0.9497062010        1.5633757467        3.3492078911
 C         -1.3304403839        0.6479751346       -2.6737527004
 C         -1.3742495527        1.5054920076        0.5882090834
 C         -0.5425992885       -0.1335789875       -5.2377395491
 C          3.4234544367        0.9490631688       -0.3604439287
 C          4.0633317197       -0.1342437458       -3.4776487402
 C          1.4959619094       -1.2591774982        3.0158209865
 C         -0.2332591535       -2.4710159602       -0.9187730625
 C          0.3016413339        0.8207573780        3.3400494515
 C         -1.3930530705       -0.6150448528       -1.9550303177
 C         -0.1360543960        2.0531346885        0.0561168840
 C          0.6441165837       -0.8685618050       -4.8266781334
 C          2.2261022572        1.7774655007       -0.4006647070
 C          2.8916337304       -0.8736162763       -3.9286995220
 C          2.6940102642        0.8039227563        3.2221742704
 C         -2.6268041713       -2.4152864284       -0.9737025412
 C          1.1172209877        3.8293596231       -0.9440179299
 C          1.6710189733       -2.9222787640       -4.1447511578
 C          2.4041180895       -4.6994667301        2.0147377166
 C          2.2842789027       -4.7986276550        0.4722165634
 C         -3.2472867676        1.7420252191        3.0386623528
 C         -3.5022702614        1.6254555517        1.4994532753
 C         -2.1444646420        2.3164546097       -4.0611250572
 C         -1.7702077098        1.8242505122       -5.4983193742
 C          5.6801057758        0.5050717054       -0.7795380189
 C          6.0255101135        0.1227176682       -2.2416946434
 Br         4.3489468734        1.7582499293        3.2462537566
 Br        -4.3062005297       -3.2113619488       -0.5291742908
 Br         1.1771660703        5.5932054756       -1.6765297063
 Br         1.5677175902       -4.8161264393       -3.9143549129
 N          2.4943778147       -3.3108273947        2.3500303072
 N          1.0417021630       -4.2041673361        0.0953454638
 N         -2.0722323169        0.9807586704        3.2974473653
 N         -2.3349732503        1.1565728087       -3.2502904018
 N         -2.3870059433        2.2216481341        0.8361832784
 N         -0.5370077506        1.1260987518       -5.3617843652
 N          4.5302846870        1.3514786511       -0.8115517661
 N          4.9437522827       -0.6674538988       -2.7462855162
 H          2.8151061307       -7.3957117411        2.5110103326
 H          4.5768595306       -7.3654093826        2.3858125429
 H          3.5098557855       -8.0230431936        0.2220217227
 H          4.4195370933       -6.5173778562        0.0668180453
 H         -5.6562759818        2.9422816330        3.6953218327
 H         -6.5673851105        1.4515397896        3.9580825841
 H         -6.1165493758        0.7338548089        1.6388587891
 H         -6.8829284250        2.3252461316        1.6407508000
 H         -2.4731358595        4.9929815909       -4.6784904132
 H         -4.1891188354        4.9054762525       -5.0885331287
 H         -2.7475542342        4.7167061614       -7.1191141781
 H         -3.7056765919        3.2546209613       -6.8641840522
 H          8.9447492385        1.0252042502        0.2363341343
 H          7.9991884915       -0.4581840248        0.3911303272
 H          9.3708463140       -0.5416886929       -1.6656861406
 H          8.6623253826        0.9787014122       -2.2195285647
 H          3.7216154824       -5.3494450920        3.5754365634
 H          4.5331155298       -4.9050197877        2.0712650706
 H          2.2099143915       -6.3172241146       -1.0405450502
 H          1.3968715889       -6.7462986198        0.4663416923
 H         -4.5203791379        0.1059602109        3.5645515957
 H         -4.2550800106        1.2691023758        4.8670777637
 H         -4.6681624334        3.4127267733        1.3546178985
 H         -4.9569021101        2.2461678563        0.0603351198
 H         -4.2385255434        2.5054796964       -4.4519785287
 H         -3.6556629733        3.4905184111       -3.1069827737
 H         -0.7790062906        3.6337724506       -6.0628023896
 H         -1.3633067391        2.6695850396       -7.4224910511
 H          6.9782891814        2.2053838213       -0.7096302554
 H          6.5915162272        1.5251587027        0.8726405248
 H          7.1433068108       -1.6307411223       -1.7376820719
 H          7.5448081992       -0.9431428932       -3.3139170364
 H         -0.6448144204       -1.0789259102        3.1659745873
 H          0.7373190983       -0.7942319125       -1.8373955323
 H          0.9788557328        0.2771957104        0.4887991713
 H          1.8401003178        0.8793438730       -4.6062570809
 H          3.6273985320       -1.1110174812        2.9063533099
 H         -1.4692799409       -4.0018010858       -0.0842570123
 H          1.5274367531        2.5836447855        3.4826629486
 H         -3.5276546644       -0.7112501500       -1.9417889211
 H         -0.9827736479        3.9443956084       -0.4657442830
 H         -0.3188519644       -2.7901611637       -4.9317754555
 H          3.2097364513        3.4495642041       -1.2974791818
 H          3.6633286432       -2.7802398533       -3.3396062241
 H          0.5035696977       -3.1900543387        2.9111636468
 H          1.9340806655       -2.5958321332       -0.8612841917
 H         -0.8575506394        2.6594509366        3.3483370980
 H         -0.3401861913        1.1266148312       -2.6913982280
 H         -1.3642156447        0.4209159157        0.7717576562
 H         -1.4543769429       -0.7325690408       -5.3781298188
 H          3.2955460382       -0.0470240336        0.0926839915
 H          4.1102310517        0.9197960715       -3.7843921899
 H          1.5022853580       -5.1659726449        2.4461129787
 H          3.1450162390       -4.2677185106        0.0283071269
 H         -3.1100565632        2.8126334271        3.2701306515
 H         -3.5803062791        0.5491860219        1.2739770069
 H         -1.2962203359        2.9244093295       -3.7060123713
 H         -2.5860236649        1.1659986888       -5.8445183848
 H          5.4881450041       -0.4271929804       -0.2193559245
 H          6.1439866018        1.0616395410       -2.8085985621
 C         -8.1337064814        1.9002093638        9.3402296461
 C         -8.7537130656        2.6051953273        8.1320887123
 O         -8.7931487645        2.2858203308       10.5345850836
 C        -10.1805757063        2.0049596540       10.4520003172
 C        -10.8008652995        2.7091850670        9.2435421044
 O        -10.1408302698        2.3244754962        8.0492364032
 H         -7.0884890898        2.1841332716        9.4637579974
 H         -8.6032238802        3.6907275555        8.2227047155
 H        -10.3308231921        0.9193508886       10.3623424339
 H        -10.7221530836        3.7984317322        9.3723851572
 H         -8.3136198592        2.2448979715        7.2023393750
 H        -10.6205988086        2.3655646931       11.3818120275
 H        -11.8456878050        2.4239887684        9.1201263580
 H         -8.2137039829        0.8110583536        9.2114806086