142
-211.12845700
 C          0.9249191539       -7.1886240929        1.5588955678
 C          0.6336064504       -7.1448339462        0.0623447589
 C         -5.1213543063        3.8912585911        4.2423807562
 C         -5.5296136167        3.9610175299        2.7743758081
 C         -2.8950056753        6.0704394721       -4.2657950060
 C         -2.8361656031        5.6141272859       -5.7200792396
 C          7.2605880025       -1.3033361102       -1.0089077694
 C          7.3137864210       -1.6542297517       -2.4922857684
 C          1.4293579051       -5.8330643887        2.0402372762
 C         -0.3846201217       -6.0547198532       -0.2491980025
 C         -4.0821721575        2.7963322984        4.4549645774
 C         -4.3098874813        4.2060391837        1.8931509312
 C         -3.3135548832        4.9163453998       -3.3618484264
 C         -1.8737153226        4.4416805881       -5.8724935484
 C          6.2974706114       -0.1466776007       -0.7705800926
 C          5.9214964513       -2.0047564675       -3.0043133008
 C         -0.1828477263       -0.2315246246        3.2515363657
 C         -1.3567228563       -0.4141734227       -1.4080268719
 C          0.7898648048        1.5520829064        0.1608081245
 C          0.6123605407        0.2323425703       -4.4812633647
 C          2.0773056418       -0.9533044032        2.8377255273
 C         -2.9963970885       -1.8255771139       -0.3522117650
 C          1.6232291749        1.3570739280        3.3792228099
 C         -3.6291435043        0.3530418789       -1.1881357557
 C          0.3107629530        3.8901151571       -0.1620740999
 C         -1.1906142089       -1.3614874479       -4.5860125920
 C          2.4179723970        2.9674382188       -0.9071417482
 C          1.0300926202       -2.0826749217       -3.9643854500
 C          0.2194626051       -2.5796916440        2.6216402173
 C         -0.6649099479       -2.6330995940       -0.5828737298
 C         -0.6933291018        2.1576736130        3.6407545282
 C         -1.9455223492        1.8071459180       -2.2834379024
 C         -1.3663073684        2.4357070818        0.9443647549
 C         -1.6841301212        1.0254057094       -4.9494101912
 C          2.9292421542        0.5658887052       -0.5671044710
 C          2.8736556559       -0.4373104357       -3.7669055850
 C          0.7127666453       -1.2426352260        2.9236759710
 C         -1.6860926350       -1.6143634286       -0.7853861909
 C          0.2607543821        1.0732796957        3.4624197476
 C         -2.3187752834        0.5720827714       -1.6115376583
 C         -0.0772769289        2.6329721115        0.2996272001
 C         -0.7335143503       -0.0501739672       -4.7103182312
 C          2.0377575392        1.7100649447       -0.4344394153
 C          1.4932234805       -0.7705040404       -4.0933403602
 C          2.5070041623        0.3360663701        3.0768936559
 C         -3.9407016274       -0.8385494370       -0.5597127229
 C          1.5476305292        4.0309696987       -0.7639956645
 C         -0.2977827424       -2.3545943916       -4.2237967684
 C          0.4135548557       -4.7315808824        1.7407294732
 C          0.1147034905       -4.6864650160        0.2195100369
 C         -2.8462056305        3.0383028877        3.5923370822
 C         -3.2671988762        3.1098962135        2.0872072900
 C         -2.3494564668        3.7419596111       -3.4950318150
 C         -2.2902957116        3.2709218701       -4.9859498026
 C          4.8928269910       -0.4901210471       -1.2705549003
 C          4.9464048874       -0.8501587899       -2.7776836530
 Br         4.3709096544        0.7356085735        2.9505365330
 Br        -5.7299976013       -1.1215924070        0.0488605917
 Br         2.0618309832        5.7478931138       -1.4266488974
 Br        -0.9349942772       -4.1467559206       -4.0415442923
 N          0.9630046593       -3.4621893855        2.1088509528
 N         -0.9137128748       -3.7184729720        0.0093442320
 N         -1.9401019852        1.9447059152        3.6894961213
 N         -2.8001019889        2.6333933280       -2.7161566232
 N         -2.0913910963        3.3978684192        1.3297901536
 N         -1.3157933361        2.2340066023       -5.0259180147
 N          4.0542213956        0.6572060305       -1.1297013435
 N          3.6298872956       -1.2530572883       -3.1694451488
 H          0.0129577229       -7.4503493275        2.1000204440
 H          1.6746448945       -7.9522297896        1.7725376946
 H          0.2449108615       -8.1075672703       -0.2729563357
 H          1.5579558634       -6.9458754572       -0.4843164370
 H         -4.7042924809        4.8526539612        4.5509615280
 H         -5.9947629511        3.6874931676        4.8638739606
 H         -6.0042131721        3.0211169676        2.4836000504
 H         -6.2529913209        4.7641816228        2.6254545194
 H         -1.9118265227        6.4337683780       -3.9582806211
 H         -3.6059752935        6.8913726195       -4.1602416906
 H         -2.5081617951        6.4372220267       -6.3569083208
 H         -3.8331660178        5.3105224777       -6.0475903848
 H          8.2536891024       -1.0247075268       -0.6531862254
 H          6.9306388097       -2.1744874051       -0.4387500035
 H          7.9838528080       -2.5003357413       -2.6536963236
 H          7.7041630149       -0.8027540117       -3.0541062950
 H          1.6150717269       -5.8543460968        3.1159750679
 H          2.3667908591       -5.5808067868        1.5417374738
 H         -0.5775024762       -6.0061375336       -1.3225497059
 H         -1.3300026201       -6.2650624557        0.2532112211
 H         -4.4996757676        1.8224185704        4.1942738702
 H         -3.7735710247        2.7619066608        5.5018575020
 H         -3.8519847323        5.1664097371        2.1354557520
 H         -4.5988846458        4.2252775700        0.8408298516
 H         -4.3159252324        4.5728614153       -3.6225708823
 H         -3.3266784270        5.2360520744       -2.3183640273
 H         -0.8627433334        4.7431488957       -5.5935879456
 H         -1.8501844370        4.1004686550       -6.9095056526
 H          6.6400619449        0.7457069414       -1.2965997804
 H          6.2401157816        0.0908557382        0.2933721678
 H          5.5389045846       -2.8852294417       -2.4853017603
 H          5.9527233185       -2.2302447422       -4.0722787387
 H         -1.2415398838       -0.4288837786        3.3184719217
 H         -0.3445840717       -0.2456013795       -1.7476485920
 H          0.4903171503        0.5814140549        0.5298179961
 H          0.9446775220        1.2539966068       -4.5812810754
 H          2.7643819906       -1.7442589392        2.5832062014
 H         -3.2418715799       -2.7574208933        0.1311251275
 H          1.9816379829        2.3630298437        3.5377582770
 H         -4.3679428847        1.1202966236       -1.3549814805
 H         -0.3647834818        4.7221332087       -0.0450784202
 H         -2.2302585926       -1.5955855118       -4.7589993963
 H          3.3851843700        3.0800393447       -1.3697801688
 H          1.7205455625       -2.8537711953       -3.6623226823
 H         -0.8417936997       -2.7581363049        2.8431581141
 H          0.3328235873       -2.3913948926       -0.9826315509
 H         -0.2690655747        3.1718244105        3.6744388313
 H         -0.8635464940        1.9684740124       -2.3983222032
 H         -1.6632849431        1.3857352852        1.0833848150
 H         -2.7422406527        0.7298068434       -5.0021431726
 H          2.5546552726       -0.3789961969       -0.1420564141
 H          3.1982331950        0.5757464291       -4.0419662493
 H         -0.5414074485       -4.9282806324        2.2564989557
 H          1.0484219838       -4.4148615280       -0.3039949880
 H         -2.3689339984        4.0003162260        3.8479145260
 H         -3.6837072491        2.1221908227        1.8296980793
 H         -1.3251664783        4.0418204544       -3.2189368097
 H         -3.2970259295        2.9088401883       -5.2580220490
 H          4.4906113739       -1.3624232316       -0.7256069983
 H          5.2758147463        0.0520026714       -3.3204687067
 C          0.0865047597       -4.4396064562        9.3031633932
 C          0.9127158959       -3.1527616417        9.2612072044
 O         -0.6008008068       -4.6295769640        8.0774377727
 C          0.3107399670       -4.6594086927        6.9932110433
 C          1.1392738296       -3.3737238788        6.9509420802
 O          1.8250389515       -3.1816614980        8.1755180206
 H         -0.6793428753       -4.3866610395       10.0769334387
 H          0.2421754799       -2.2878304731        9.1538960128
 H          0.9808537847       -5.5247960060        7.0989371472
 H          0.4775823904       -2.5154815389        6.7617646154
 H          1.5159572252       -3.0464187832       10.1627335969
 H         -0.2925738098       -4.7640439060        6.0915518658
 H          1.9057790337       -3.4289363850        6.1777145019
 H          0.7495488013       -5.2966931853        9.4891775608