142
-211.12704494
 C         -3.8307233891       -4.9453659783        8.1487946059
 C         -5.1877933269       -4.7342263589        7.4835358038
 C          6.0648400156        1.8611604259        5.6742659161
 C          5.4716891078        3.2650622065        5.6863625468
 C         -6.6716421329       -1.7425588544       -4.3230614262
 C         -5.7129660015       -2.7195369179       -4.9934765940
 C          4.4986660375        5.4684936129       -6.3601690568
 C          3.9012488190        4.4821928524       -7.3599256765
 C         -2.7169505574       -4.9619383177        7.1069707229
 C         -5.1918427688       -3.4473851128        6.6648739874
 C          4.9686634826        0.8339308244        5.4233364604
 C          4.7765568310        3.5487440085        4.3612196985
 C         -6.2857916595       -1.5527265090       -2.8619472971
 C         -4.2834983850       -2.2038943160       -4.8886040387
 C          3.6035008013        5.6005595871       -5.1322707883
 C          3.6755072589        3.1234166834       -6.7051135500
 C          1.0701193654       -1.7299092403        4.0814245746
 C         -4.1038386473       -1.0733469560        1.4630095949
 C          2.3499030372        3.4803488725        0.1483457483
 C         -0.0405518601       -0.1449369231       -3.6174579019
 C          0.0235529463       -3.6303088302        3.0383929248
 C         -3.5847546600        0.1658189523        3.4606938900
 C          1.9397023640       -2.5797772031        2.0017796061
 C         -3.6215290484        1.2819302236        1.3153932033
 C          0.1416616122        3.7998649884        1.0558679962
 C          0.8285517412       -2.0083145420       -2.3644526001
 C          0.5639693660        4.2174025368       -1.2883238067
 C          2.3184489951       -0.2792918082       -3.1600509285
 C         -0.8884542023       -2.7647379231        5.1686243174
 C         -4.0637489640       -2.2553904064        3.6284779129
 C          3.0724212654       -0.6691894168        3.0809448955
 C         -4.2123966298        0.0516949307       -0.7415939262
 C          1.9655514959        3.1051395763        2.5670989925
 C         -1.5841490488       -1.9336068925       -2.8752188630
 C          2.8209936317        3.8785569046       -2.2409453080
 C          1.4504597578        1.6212044359       -4.4804640639
 C          0.0850680255       -2.7105161325        4.0878611034
 C         -3.9237800338       -1.0392328501        2.8408385561
 C          2.0068936969       -1.6638644599        3.0509999194
 C         -3.9670587063        0.0820674959        0.6949913585
 C          1.4804970611        3.4559177773        1.2378674126
 C         -0.2523417429       -1.3460684900       -2.9435314937
 C          1.9043668713        3.8666081367       -1.1103471736
 C          1.2374926713        0.3860674513       -3.7404828005
 C          0.9433331255       -3.5396949193        2.0151224850
 C         -3.4310144224        1.2957053028        2.6855945261
 C         -0.2894299858        4.1662593501       -0.2066305958
 C          2.0898471343       -1.4561779435       -2.4811583152
 C         -2.7155612748       -3.6604892201        6.3048328028
 C         -4.0864727712       -3.4825209888        5.6093537455
 C          4.2420268604        1.0943059617        4.0977586048
 C          3.6691475872        2.5269760427        4.0737264782
 C         -4.8482194494       -1.0375704431       -2.7205859062
 C         -3.8643141917       -1.9931060388       -3.4286208967
 C          3.3983542871        4.2379262728       -4.4703687574
 C          2.7596316577        3.2633272938       -5.4902746793
 Br         0.8297559324       -4.7813360757        0.5659401019
 Br        -2.9312064904        2.9324695206        3.5355069777
 Br        -2.1304537285        4.6085168169       -0.4659353407
 Br         3.5687558833       -2.3503256302       -1.6832329604
 N         -1.7218393869       -3.7066811367        5.2768817477
 N         -4.0394813002       -2.2466112087        4.8905287737
 N          3.1542153380        0.1683333998        4.0214371921
 N         -4.5363408319       -1.0195543214       -1.3247008134
 N          3.1739293860        2.7962063176        2.7590061308
 N         -2.5704393491       -1.3823016728       -3.4377561020
 N          2.4941864550        4.3452116528       -3.3675774546
 N          2.6027094998        2.0033064928       -4.8305985776
 H         -3.6465467311       -4.1386452010        8.8619820834
 H         -3.8282445444       -5.8880612335        8.6988432416
 H         -5.9709046263       -4.6851603018        8.2421872670
 H         -5.4063562582       -5.5802763885        6.8279512405
 H          6.8200936985        1.7901273927        4.8885257741
 H          6.5488303268        1.6480607607        6.6290092064
 H          4.7517896172        3.3508468541        6.5032247610
 H          6.2572691524        4.0051583965        5.8487010679
 H         -6.6341392222       -0.7809214044       -4.8394955692
 H         -7.6946611987       -2.1182593609       -4.3814252167
 H         -5.9763392330       -2.8445437578       -6.0452314545
 H         -5.7866028506       -3.6950064775       -4.5077973297
 H          4.6192275887        6.4468361221       -6.8286198183
 H          5.4864581812        5.1188142006       -6.0513799295
 H          4.5697040170        4.3668964151       -8.2147650133
 H          2.9482897799        4.8694253242       -7.7276553469
 H         -1.7445891201       -5.0792347765        7.5900649257
 H         -2.8531877608       -5.7963424409        6.4170228919
 H         -6.1535393828       -3.3169973648        6.1640648722
 H         -5.0289884528       -2.5838626585        7.3118913956
 H          4.2305264124        0.8695950976        6.2266293648
 H          5.3872982668       -0.1744404481        5.3959302850
 H          5.4975567821        3.5061778732        3.5428583642
 H          4.3329992655        4.5468190745        4.3671243873
 H         -6.3597614131       -2.5017683819       -2.3279199862
 H         -6.9575531188       -0.8408762699       -2.3773423258
 H         -4.1897963833       -1.2491320974       -5.4092059228
 H         -3.5881236382       -2.9085867513       -5.3499328175
 H          2.6284381278        6.0018988763       -5.4133425441
 H          4.0514947990        6.2811617664       -4.4051021868
 H          4.6256257304        2.6977624079       -6.3779127828
 H          3.2219616208        2.4281502701       -7.4146723559
 H          1.1404725790       -1.0084957416        4.8801559276
 H         -4.3672637656       -1.9904453020        0.9601410157
 H          3.3797888079        3.2053260962        0.3127358126
 H         -0.8915888135        0.3470000306       -4.0622229026
 H         -0.7415667824       -4.3895331430        3.0524481899
 H         -3.4500935651        0.1841532382        4.5300900704
 H          2.6583763682       -2.5441289108        1.1970678332
 H         -3.5122883320        2.1857195794        0.7353948204
 H         -0.5443006227        3.7864022709        1.8891440879
 H          0.6830917455       -2.9442775501       -1.8467700626
 H          0.2276817385        4.5183085475       -2.2673294554
 H          3.3082210186        0.1361517778       -3.2615848429
 H         -0.8572709893       -1.9252773608        5.8780155840
 H         -4.1800304427       -3.1836543019        3.0508205390
 H          3.8008090580       -0.7128021506        2.2589320814
 H         -4.1224194427        1.0112257430       -1.2702282479
 H          1.2280993816        3.1509026317        3.3808113543
 H         -1.6670570010       -2.8867970541       -2.3339764024
 H          3.8126818084        3.4425242155       -2.0524701449
 H          0.5443709153        2.1933894249       -4.7269026325
 H         -2.5618797512       -2.7987644540        6.9786076232
 H         -4.2371417899       -4.3404863681        4.9301393648
 H          4.9400154108        0.9868477146        3.2492105886
 H          2.8759993525        2.5953170622        4.8386433112
 H         -4.7510346474       -0.0388015318       -3.1810168699
 H         -3.8658724475       -2.9541900020       -2.8853604758
 H          4.3708480778        3.8165531110       -4.1586636828
 H          1.7844261697        3.6848364014       -5.7913644141
 C          3.3644087654       -2.1953734976       -5.9501464726
 C          3.5438132819       -0.8697142025       -6.6896151958
 O          2.0394475152       -2.3167576806       -5.4544643983
 C          1.1019001025       -2.2092250362       -6.5116655190
 C          1.2829116124       -0.8888470438       -7.2621795618
 O          2.6059760365       -0.7664726582       -7.7516645507
 H          4.0238584146       -2.2515568822       -5.0846079680
 H          3.4027711252       -0.0305516189       -5.9944219339
 H          1.2371602990       -3.0499809611       -7.2072725768
 H          1.0636998211       -0.0520917168       -6.5842834770
 H          4.5294592752       -0.8140610860       -7.1516731297
 H          0.1155358034       -2.2610014689       -6.0505693869
 H          0.6291521597       -0.8455479282       -8.1336538547
 H          3.5762881175       -3.0314935097       -6.6319231974