142
-211.12716730
 C         -7.2624106901       -2.2405661734        3.2460179074
 C         -7.7519993835       -2.7501376759        1.8939485800
 C          3.4972437266        2.5532689258        7.0640943648
 C          3.0295988502        3.9826638164        6.8172745667
 C          3.6031313101       -6.4652114429       -3.2698939099
 C          4.4887662471       -5.9731418240       -2.1289160747
 C          6.4333044911        4.6171356117       -5.6258713109
 C          5.6554087742        3.6571777984       -6.5204533414
 C         -5.7919752297       -2.5931932579        3.4420167070
 C         -6.9049138114       -2.1721034884        0.7656364792
 C          2.5794719265        1.5710078672        6.3479733219
 C          2.9985130258        4.2725102836        5.3222426330
 C          2.1705375545       -5.9744689349       -3.0886096189
 C          4.4467654133       -4.4516213851       -2.0332246809
 C          5.5059506362        5.2630548377       -4.6026152406
 C          4.9601290443        2.5915253976       -5.6807667150
 C         -0.3648992642       -0.7996859935        3.1324023792
 C         -1.6612288227       -2.7274811891       -1.9725244849
 C          2.4471048851        4.2775396130        0.4220442703
 C          2.2487343350        0.2417048164       -2.1145397396
 C         -0.8078089040       -3.0221601616        2.3188350276
 C         -2.9580621094       -0.6952717911       -1.9798430850
 C          1.4640058665       -2.3230994208        2.7523994108
 C         -0.9497396381       -0.8568821661       -3.3114665223
 C          0.3726041345        5.4723286641        0.6896075675
 C          0.6485795320       -0.1359434820       -0.3533322771
 C          1.6097437949        5.6451034101       -1.3769121287
 C          0.7182270671        1.9941899990       -1.4835021657
 C         -2.6940463705       -1.4490384732        2.6271269623
 C         -3.6832135012       -2.5936716417       -0.5671192543
 C          1.9538966711       -0.0790905196        3.6423900451
 C          0.4772393455       -2.8478850184       -3.2346360212
 C          1.2366064590        4.1728833509        2.5896851955
 C          2.0435255346       -2.0110134539       -1.0830045082
 C          3.6793684829        4.3380591056       -1.7169806709
 C          2.3254514445        2.4332118474       -3.2851243632
 C         -1.2730776161       -1.7632065378        2.7056498518
 C         -2.7637086531       -2.0041972430       -1.5302564269
 C          1.0017558021       -1.0726994645        3.1625022884
 C         -0.7450129719       -2.1582504880       -2.8539451626
 C          1.3534252076        4.6290367944        1.2110639543
 C          1.6793836740       -0.6063211044       -1.1686988337
 C          2.5790068433        4.7747889573       -0.8699603691
 C          1.7629625895        1.5337970595       -2.2865859729
 C          0.5475706007       -3.2780376296        2.3489558882
 C         -2.0511035857       -0.1501103522       -2.8643963328
 C          0.5231288323        5.9724482807       -0.5918882388
 C          0.1989822611        1.1590419808       -0.5145164218
 C         -4.9469008815       -1.9776869836        2.3245358050
 C         -5.4345649009       -2.5351272615        0.9650804491
 C          2.5326869979        1.8454631147        4.8368652021
 C          2.0793906368        3.2914244912        4.5794774202
 C          2.1284453113       -4.4514472851       -3.0183477280
 C          3.0153637902       -3.9706000468       -1.8217217683
 C          4.8163874382        4.2061168392       -3.7433201167
 C          4.0176970145        3.2259849821       -4.6619966404
 Br         1.1752755701       -5.0033620399        1.8083357266
 Br        -2.2944327715        1.6461378272       -3.4739964469
 Br        -0.8170969135        7.1484235438       -1.2942083721
 Br        -1.1988357075        1.7961649013        0.6071941896
 N         -3.5717207749       -2.3446638527        2.4763319221
 N         -4.6317483825       -1.9352189426       -0.0572196334
 N          1.5737917828        0.9449754648        4.2725844883
 N          0.8044735867       -3.9796809474       -2.7703823245
 N          2.1863802126        3.5887157734        3.1816549904
 N          2.9371356465       -2.5462096609       -1.8015786481
 N          3.8608901753        4.8107203423       -2.8767551460
 N          3.4545393327        2.2234655577       -3.8154091015
 H         -7.3882830845       -1.1564140899        3.2962279377
 H         -7.8530154500       -2.6863796314        4.0484384107
 H         -8.7975165997       -2.4741828209        1.7455026777
 H         -7.6798241676       -3.8396320755        1.8729055723
 H          4.5188474333        2.4346280652        6.6962297635
 H          3.4952822531        2.3356429089        8.1336223269
 H          2.0302487534        4.1173974544        7.2366743963
 H          3.7010885272        4.6887032740        7.3089964859
 H          3.9948242378       -6.0948838241       -4.2202262613
 H          3.6122634649       -7.5558615933       -3.3040521754
 H          5.5175767710       -6.3005408525       -2.2881620631
 H          4.1387456061       -6.4023275682       -1.1873617046
 H          6.9038957655        5.3939090308       -6.2310116721
 H          7.2230138783        4.0702761344       -5.1055024998
 H          6.3310822837        3.1779666617       -7.2310425478
 H          4.9082781510        4.2151522451       -7.0894890510
 H         -5.4321307346       -2.2215854538        4.4041672717
 H         -5.6641897932       -3.6758300651        3.4165621120
 H         -7.2364573513       -2.5640012646       -0.1979328186
 H         -6.9961374668       -1.0848730708        0.7370474846
 H          1.5638533308        1.6506880454        6.7403438887
 H          2.9202836416        0.5448581348        6.5041821718
 H          4.0020005729        4.1861054275        4.9009234819
 H          2.6434644345        5.2886333819        5.1366554745
 H          1.7443000560       -6.3771841908       -2.1686558722
 H          1.5475423378       -6.3032721198       -3.9228278186
 H          4.8382738379       -3.9992215905       -2.9456823668
 H          5.0579921949       -4.1075479021       -1.1966396377
 H          4.7384456050        5.8534126537       -5.1056393543
 H          6.0686541681        5.9309951677       -3.9471689828
 H          5.6958925317        1.9913489773       -5.1430181118
 H          4.3814240895        1.9215253488       -6.3196279932
 H         -0.6998856281        0.1765608513        3.4447375359
 H         -1.4837600587       -3.7356566697       -1.6320142678
 H          3.1879227574        3.6128025731        0.8381181910
 H          3.0523922432       -0.1153750036       -2.7370818880
 H         -1.5154990059       -3.7659452976        1.9932560081
 H         -3.8081998161       -0.1400038976       -1.6175505381
 H          2.5206208016       -2.5452055548        2.7598268995
 H         -0.2454893795       -0.4019771838       -3.9916701238
 H         -0.4899229557        5.7370672152        1.2818346605
 H          0.1991174998       -0.7816209212        0.3857476716
 H          1.7277363145        6.0343873913       -2.3753516728
 H          0.3246824096        2.9896684230       -1.6185598174
 H         -2.9455670570       -0.3819464699        2.6898049757
 H         -3.4832394967       -3.6395909700       -0.2958220855
 H          3.0157832194       -0.2985631928        3.4545009330
 H          1.1320488886       -2.2929346697       -3.9228740413
 H          0.2887986320        4.4111406519        3.0927967870
 H          1.4385998792       -2.6017219090       -0.3787483306
 H          4.3234371552        3.5530470209       -1.2946189502
 H          1.7100170279        3.3088514224       -3.5340435537
 H         -5.0700838349       -0.8805484266        2.3178277911
 H         -5.3116645483       -3.6305710992        0.9936172755
 H          3.5373809753        1.7035538705        4.4021518661
 H          1.0433332310        3.4022914389        4.9435079076
 H          2.5545556683       -4.0058988626       -3.9337052477
 H          2.5884839771       -4.4172160924       -0.9087306138
 H          5.5585606518        3.6052634709       -3.1890492472
 H          3.2393443768        3.8232105759       -5.1654488424
 C         -5.1902948967       -7.7782579241        3.8110061501
 C         -5.5204117875       -7.2500274529        2.4140936162
 O         -3.8058122419       -7.6395337898        4.0801604361
 C         -3.4055450243       -6.2846466035        3.9551835347
 C         -3.7415287490       -5.7431422223        2.5654649036
 O         -5.1268089447       -5.8945064365        2.2902345976
 H         -5.4115480907       -8.8429147952        3.8873181997
 H         -4.9975176890       -7.8552496840        1.6594159659
 H         -3.9139519273       -5.6786709858        4.7189942199
 H         -3.1592013224       -6.2894672830        1.8085378382
 H         -6.5948876684       -7.2763347825        2.2311558803
 H         -2.3295927916       -6.2699276259        4.1289992287
 H         -3.5406726342       -4.6707484092        2.5106033495
 H         -5.7688417251       -7.2205006013        4.5619615500