142
-211.13040516
 C          0.8909618591       -7.1161985733        1.7963632539
 C          0.5379023825       -7.1250353309        0.3122116280
 C         -4.8164012213        4.0766764417        4.6405346089
 C         -5.3272635918        4.0995455678        3.2034450787
 C         -3.0504354846        6.0676588966       -4.1006138252
 C         -3.1072554711        5.5858543013       -5.5467864357
 C          7.0627852810       -1.5038570049       -1.3201107997
 C          7.0236891551       -1.8804130778       -2.7976372237
 C          1.4302791032       -5.7507243202        2.2053609387
 C         -0.4835277514       -6.0373395342        0.0017500719
 C         -3.7765729202        2.9762440049        4.8196416045
 C         -4.1705355057        4.2964759793        2.2300791659
 C         -3.4342461671        4.9406525070       -3.1483016640
 C         -2.1899522778        4.3844304397       -5.7454927373
 C          6.1368974027       -0.3246017436       -1.0473724611
 C          5.5976822182       -2.2109641177       -3.2229871547
 C         -0.0006511848       -0.1399532167        3.4291200154
 C         -1.4601819853       -0.3980498365       -1.2349555036
 C          0.7473230450        1.5044769796        0.2158374172
 C          0.2682520793        0.1277852124       -4.4399590458
 C          2.2096886973       -0.8876464134        2.8346728834
 C         -3.0511814821       -1.7631941773       -0.0521564797
 C          1.8203836917        1.4359255104        3.3702130663
 C         -3.7009680219        0.4121433912       -0.8841361838
 C          0.2859678778        3.8422350513       -0.1337498622
 C         -1.5810159097       -1.4148339003       -4.4025263896
 C          2.3144258906        2.8600321113       -1.0095597083
 C          0.6530113412       -2.1887643061       -3.9043355899
 C          0.3312238591       -2.5027585269        2.8073079618
 C         -0.7499531371       -2.6109758371       -0.4089237607
 C         -0.4619022350        2.2643700935        3.7892860333
 C         -2.0672649681        1.8168962928       -2.1117540471
 C         -1.3286036051        2.4499944507        1.1331212449
 C         -2.0298252444        0.9797270456       -4.7753739277
 C          2.8078875196        0.4584884471       -0.6451391903
 C          2.5480395351       -0.5908149464       -3.8463267292
 C          0.8563736668       -1.1645782760        3.0448387294
 C         -1.7677612644       -1.5814978850       -0.5707357252
 C          0.4671646228        1.1659628351        3.5703104883
 C         -2.4170550383        0.6012473121       -1.3940449528
 C         -0.0881012900        2.6050974963        0.3894425639
 C         -1.0965971006       -0.1195044313       -4.5795529450
 C          1.9490055643        1.6227815355       -0.4760517272
 C          1.1431076485       -0.8928474431       -4.0864692404
 C          2.6680988850        0.4012250831        3.0163144313
 C         -3.9907749593       -0.7638314959       -0.2172203616
 C          1.4761855355        3.9436296855       -0.8300917147
 C         -0.6952605762       -2.4269919169       -4.0774062853
 C          0.4171390721       -4.6485232794        1.9005497156
 C          0.0470745662       -4.6578406326        0.3954375127
 C         -2.6029779525        3.1697199446        3.8629256635
 C         -3.1298257092        3.1929372268        2.3900651323
 C         -2.5124506317        3.7389004840       -3.3278224904
 C         -2.5735654043        3.2409956378       -4.8098350445
 C          4.6994241960       -0.6492519555       -1.4594871085
 C          4.6604709312       -1.0327570651       -2.9608979555
 Br         4.5195795752        0.7792206316        2.7348955153
 Br        -5.7417805333       -1.0065306875        0.5077934677
 Br         1.9688041129        5.6324828533       -1.5753887531
 Br        -1.3691565419       -4.1968269157       -3.8232267839
 N          1.0012091759       -3.3763461259        2.1912507509
 N         -0.9828031251       -3.6864425113        0.2070153596
 N         -1.7039146800        2.0679169195        3.9338088535
 N         -2.9321133697        2.6555165215       -2.4977352430
 N         -2.0080291237        3.4360008712        1.5405253945
 N         -1.6335477431        2.1755457304       -4.8989403625
 N          3.8912349040        0.5157942659       -1.2882731744
 N          3.3155906809       -1.4121271740       -3.2715143590
 H         -0.0003473281       -7.3455848114        2.3843362558
 H          1.6403165839       -7.8808159438        2.0079339420
 H          0.1278812813       -8.0959030552        0.0294729465
 H          1.4405732999       -6.9553628455       -0.2788701240
 H         -4.3681312340        5.0428568627        4.8834089075
 H         -5.6456289387        3.9070865627        5.3291901808
 H         -5.8314820042        3.1563601412        2.9812134411
 H         -6.0506153049        4.9065493360        3.0768057044
 H         -2.0385654778        6.4084632485       -3.8699500076
 H         -3.7300246061        6.9097187304       -3.9604416034
 H         -2.8034486188        6.3888468285       -6.2202305923
 H         -4.1328309362        5.3050041026       -5.7973608862
 H          8.0798270109       -1.2388804742       -1.0270881495
 H          6.7500421062       -2.3588224077       -0.7166883767
 H          7.6669668540       -2.7424521933       -2.9820536750
 H          7.3973853239       -1.0464534465       -3.3958994941
 H          1.6469901727       -5.7228931538        3.2748741371
 H          2.3521985205       -5.5312343604        1.6640909032
 H         -0.7228725968       -6.0287407778       -1.0633818635
 H         -1.4078312742       -6.2185927559        0.5524242710
 H         -4.2222223094        1.9991780862        4.6260380095
 H         -3.3942892836        2.9763430059        5.8425278490
 H         -3.6854484120        5.2581688637        2.4047968046
 H         -4.5328539360        4.2829455905        1.2005393995
 H         -4.4610947585        4.6202684409       -3.3317070466
 H         -3.3656805213        5.2775911261       -2.1123974386
 H         -1.1538666193        4.6618948461       -5.5448326261
 H         -2.2499942636        4.0254929704       -6.7750305947
 H          6.4647947496        0.5518519523       -1.6084001533
 H          6.1462900578       -0.0675504036        0.0135118563
 H          5.2283668510       -3.0748981513       -2.6678218269
 H          5.5630482468       -2.4543042010       -4.2869125942
 H         -1.0511964760       -0.3270687599        3.5896195366
 H         -0.4693750866       -0.2532898567       -1.6418013548
 H          0.4599091435        0.5495224468        0.6324866426
 H          0.6219246356        1.1375301552       -4.5798334715
 H          2.8654849029       -1.6885473932        2.5336470878
 H         -3.2796136667       -2.6823361266        0.4628733926
 H          2.1978314310        2.4416749902        3.4777830607
 H         -4.4363364089        1.1893272674       -1.0166286384
 H         -0.3641453070        4.6899370492        0.0111156831
 H         -2.6354808417       -1.6219397137       -4.5063946594
 H          3.2456978571        2.9418614346       -1.5464884989
 H          1.3387429148       -2.9740617568       -3.6293959160
 H         -0.6918219750       -2.6855450697        3.1638803188
 H          0.2304989290       -2.3839593233       -0.8568944997
 H         -0.0273610942        3.2743749060        3.7595519115
 H         -0.9929197502        1.9516422449       -2.3061047311
 H         -1.6306696415        1.4098352323        1.3258389700
 H         -3.0971066285        0.7149866429       -4.7503057873
 H          2.4475324088       -0.4691281980       -0.1726175077
 H          2.8823387311        0.4071682134       -4.1621235629
 H         -0.5125683672       -4.8104590422        2.4717826064
 H          0.9558392921       -4.4116371550       -0.1815240652
 H         -2.0976706969        4.1334812254        4.0484758072
 H         -3.5757693641        2.2027920069        2.1999248430
 H         -1.4635925140        4.0163917649       -3.1323258942
 H         -3.6068145637        2.9034395826       -5.0025238300
 H          4.3141419303       -1.5054527342       -0.8779105344
 H          4.9774377912       -0.1462150926       -3.5360407020
 C          0.5935009470       -3.4302860918        7.5209604807
 C          0.6027667486       -4.6596623398        6.6110269200
 O          1.8927745226       -3.1776926103        8.0278925222
 C          2.8190233566       -3.0058312292        6.9691678501
 C          2.8251417324       -4.2314395253        6.0540076485
 O          1.5248260235       -4.4853003727        5.5476188867
 H         -0.0459557462       -3.5923383476        8.3887447531
 H          0.8820078981       -5.5474539522        7.1963047393
 H          2.5501578384       -2.1114488617        6.3885103389
 H          3.1752686499       -5.1079675318        6.6178941129
 H         -0.3732249768       -4.8116894562        6.1503267965
 H          3.7937335876       -2.8648631189        7.4364322706
 H          3.4647489099       -4.0677122518        5.1871319927
 H          0.2430208309       -2.5545340770        6.9551360721