142
-211.13134673
 C          0.7373034868       -7.0969605156        2.5350173810
 C          0.0097895583       -7.1555915994        1.1959741247
 C         -3.9770458482        4.3689723568        5.4938394597
 C         -4.7532937645        4.3208173167        4.1816870475
 C         -4.1532363164        5.7049828666       -3.5650512880
 C         -4.5328974378        5.0679294383       -4.8978914606
 C          6.5142117154       -1.5654264043       -2.5313765696
 C          6.1200441996       -2.0575956296       -3.9201938394
 C          1.4701105714       -5.7675131085        2.6764287475
 C         -0.9666070843       -5.9926494587        1.0713757527
 C         -2.9234071177        3.2678130701        5.5305711555
 C         -3.8035273375        4.4497035868        2.9961483917
 C         -4.2915707409        4.6932559412       -2.4330854531
 C         -3.6645848892        3.8448022631       -5.1694672049
 C          5.6494881257       -0.3780057445       -2.1244118036
 C          4.6434259395       -2.4345835147       -3.9500438697
 C          0.5170568952        0.0306544696        3.6830859577
 C         -1.9501412227       -0.4640153735       -0.4387599123
 C          0.6380986596        1.5059413391        0.2234487340
 C         -0.8804958570       -0.2397488662       -4.0288861267
 C          2.5642394594       -0.8059038372        2.7323168704
 C         -3.2308512107       -1.6077580041        1.2487096658
 C          2.2763984946        1.5674781203        3.0988080970
 C         -4.0173679015        0.4918662081        0.3457185806
 C          0.0932876765        3.8212662887       -0.1568010110
 C         -2.6312349524       -1.7829530178       -3.4336510789
 C          1.9078275926        2.7855662992       -1.3725507162
 C         -0.3220771490       -2.4958788224       -3.3981441148
 C          0.7020730673       -2.3771491556        3.2434460663
 C         -1.1260367331       -2.6233612035        0.4300533391
 C          0.1309529836        2.4620438193        3.9194711528
 C         -2.7069196309        1.6758889261       -1.3918272143
 C         -1.2182943328        2.5118028575        1.4879596098
 C         -3.2159790789        0.5649945378       -3.9103257848
 C          2.4894829964        0.4099050972       -0.9866352336
 C          1.4927250310       -0.8901823739       -3.9281511457
 C          1.2828565209       -1.0414043523        3.2370419990
 C         -2.1137931072       -1.5525283464        0.4129695747
 C          0.9974125174        1.3365783788        3.6033997531
 C         -2.8945389650        0.5589136598       -0.4782738047
 C         -0.1542068035        2.6171966625        0.5015224956
 C         -2.2342868447       -0.5064669137       -3.8294571899
 C          1.6708548517        1.5817333618       -0.7063810290
 C          0.0790652967       -1.2191705988       -3.8008046674
 C          3.0366745134        0.4896941661        2.6816177451
 C         -4.1580466045       -0.5848286911        1.2014832605
 C          1.1149525347        3.8801169102       -1.0864282544
 C         -1.6676095872       -2.7558899818       -3.2342960079
 C          0.4974832956       -4.5943618250        2.5721682519
 C         -0.2492108264       -4.6475927624        1.2146467265
 C         -1.9539992832        3.3963142786        4.3583978296
 C         -2.7539582412        3.3429477067        3.0145894547
 C         -3.4200685654        3.4668700635       -2.6852031559
 C         -3.8045780601        2.8128538880       -4.0532476586
 C          4.1640733152       -0.7436234309       -2.1442623509
 C          3.7672920846       -1.2462250681       -3.5557122764
 Br         4.7735984890        0.8128857019        1.9674731893
 Br        -5.6756604126       -0.6523881320        2.3595773279
 Br         1.4303855355        5.5226968614       -2.0095090037
 Br        -2.2191276201       -4.4996355533       -2.6807530721
 N          1.2121517990       -3.3512575718        2.6204287051
 N         -1.2287723767       -3.6085844808        1.2105068160
 N         -1.0575294821        2.2916494826        4.3207153942
 N         -3.6373281867        2.4858356657       -1.6708427369
 N         -1.8193485698        3.5242833591        1.9508292051
 N         -2.8862223850        1.7415347760       -4.2399245766
 N          3.3939601922        0.4254742166       -1.8652455459
 N          2.3974070603       -1.6575991144       -3.4957710853
 H          0.0158608372       -7.2051891265        3.3477559638
 H          1.4542051646       -7.9162512925        2.6088216783
 H         -0.5369988973       -8.0953274342        1.1055566924
 H          0.7367699046       -7.1090325719        0.3823553227
 H         -3.4895695749        5.3415238874        5.5938746011
 H         -4.6594876370        4.2455447829        6.3362294898
 H         -5.2934153528        3.3739536018        4.1130764319
 H         -5.4852678856        5.1294005430        4.1507740728
 H         -3.1208079608        6.0586914477       -3.6114960925
 H         -4.7953220648        6.5642092966       -3.3650521390
 H         -4.4060013988        5.7892252528       -5.7067466606
 H         -5.5835067012        4.7695004517       -4.8733980845
 H          7.5630259264       -1.2646159276       -2.5245492508
 H          6.3942771585       -2.3759548850       -1.8097015100
 H          6.7218946365       -2.9259020620       -4.1928619352
 H          6.3092504939       -1.2707923480       -4.6540755931
 H          1.9819239242       -5.7135679092        3.6393101738
 H          2.2172661712       -5.6703310259        1.8874698108
 H         -1.4685764569       -6.0170858720        0.1023300260
 H         -1.7303785276       -6.0559258914        1.8479983903
 H         -3.3991922256        2.2871304006        5.4788322797
 H         -2.3525235843        3.3174379732        6.4600937836
 H         -3.2909492107        5.4127040244        3.0223974949
 H         -4.3560311010        4.3875094758        2.0570102638
 H         -5.3285881854        4.3668288253       -2.3394090909
 H         -3.9912175653        5.1409743985       -1.4840253069
 H         -2.6149834661        4.1343877846       -5.2414707181
 H         -3.9508692568        3.3758601272       -6.1131540477
 H          5.8043485344        0.4555078776       -2.8114412748
 H          5.9103262611       -0.0360784349       -1.1205524984
 H          4.4500551304       -3.2529084075       -3.2545821862
 H          4.3533021884       -2.7650915112       -4.9495723756
 H         -0.4773861286       -0.1229738515        4.0726621948
 H         -1.0863000261       -0.4131711416       -1.0863587681
 H          0.4500437503        0.5773432698        0.7438311650
 H         -0.5953059120        0.7550427352       -4.3342214127
 H          3.1690972799       -1.6350499218        2.4067649786
 H         -3.3459992038       -2.4520347115        1.9090878629
 H          2.6616909404        2.5734593711        3.0250771929
 H         -4.7462742254        1.2848541290        0.3017710120
 H         -0.5225268812        4.6767379214        0.0696791869
 H         -3.6757294631       -2.0049534804       -3.2745236905
 H          2.7084626642        2.8332320149       -2.0928532949
 H          0.4290855969       -3.2492522995       -3.2224178791
 H         -0.2449008096       -2.4710053568        3.7931845020
 H         -0.2952398365       -2.5172766238       -0.2853874732
 H          0.5515534314        3.4615459955        3.7355149807
 H         -1.7010659222        1.7616232815       -1.8286398403
 H         -1.4610903556        1.4879424139        1.8077766334
 H         -4.2429278554        0.3022075242       -3.6170778182
 H          2.2634626905       -0.4840863954       -0.3833606306
 H          1.7155434663        0.0804955217       -4.3924868890
 H         -0.2647533527       -4.6521083215        3.3673717158
 H          0.4946215032       -4.5166779133        0.4089290626
 H         -1.4237847122        4.3640882867        4.3886400202
 H         -3.2293099231        2.3493286249        2.9705736133
 H         -2.3568041553        3.7484485713       -2.7584609956
 H         -4.8474516952        2.4605742678       -3.9699093245
 H          3.9539466896       -1.5558705264       -1.4257160421
 H          3.9103006539       -0.4064029343       -4.2567884927
 C          6.6834893775       -2.6298189493        2.7369565581
 C          6.9683139362       -2.5268978840        1.2383402888
 O          5.2901488164       -2.7525067243        2.9689903200
 C          4.7702302217       -3.8853314453        2.2903417296
 C          5.0522377164       -3.7805605074        0.7912348509
 O          6.4411151284       -3.6484575402        0.5470794615
 H          7.0018628933       -1.7235463305        3.2518514954
 H          6.5165763688       -1.6055160770        0.8453938570
 H          5.2363157618       -4.7974500386        2.6893593178
 H          4.5245491667       -2.9072392066        0.3796733021
 H          8.0403373794       -2.5256641395        1.0436551892
 H          3.6966528985       -3.8965651065        2.4859428665
 H          4.7354151761       -4.6838339872        0.2693922571
 H          7.2025860099       -3.5035262019        3.1561135699