142
-211.12750171
 C         -0.4376441768       -4.0678791013       -5.2401395401
 C         -1.2576693045       -5.1313366527       -4.5168286197
 C          1.3590457625        7.5567446712        2.9941047663
 C          2.3739211942        8.1161128117        2.0023284980
 C         -6.2590455030        2.9526712999        4.1963000226
 C         -5.5362444173        4.0906603424        3.4829635917
 C          6.8078768564       -3.8522027932        0.4939865798
 C          5.7856273216       -4.4796717741        1.4361472399
 C         -0.8404519653       -2.6755864016       -4.7697760688
 C         -1.0793869192       -5.0040698157       -3.0082747696
 C          0.3249350188        6.7007462397        2.2716531265
 C          3.0564630269        6.9839844345        1.2431543895
 C         -5.7674940197        1.6046302271        3.6814865220
 C         -4.0289386247        3.9664142806        3.6743042681
 C          6.1204389021       -2.8941137570       -0.4719837607
 C          5.0343941545       -3.3973885765        2.2018909290
 C         -0.1497320438        1.5632955178       -0.8004041510
 C         -2.4597246576       -1.7406020176        1.7702400209
 C          3.4985568287        2.4273489402       -0.9303262837
 C          0.5824057787        0.3866126269        2.2694014178
 C         -2.1856657127        1.2600309425       -2.0487814873
 C         -0.6274549682       -3.2995461128        1.6558500999
 C         -1.8427159597        3.2760237852       -0.7591285126
 C         -1.0742671078       -2.1027146472        3.7069944685
 C          2.1327262716        2.7529891413       -2.8871532057
 C          0.6692221345        2.1143419069        3.9451427223
 C          3.2371827760        0.6352664492       -2.5176740047
 C          2.6135026266        0.7443542839        3.5111559308
 C         -0.4470576850       -0.5041780977       -2.1124026128
 C         -1.9975217572       -2.8769366509       -0.3669597581
 C          0.2554861423        3.5967336297        0.5224153914
 C         -2.8361887757       -0.3819482601        3.8038824750
 C          2.2428149557        4.5414558885       -1.1927361412
 C         -1.4279607087        1.7447281455        2.6750622953
 C          4.5795251593        0.2643219493       -0.4649773682
 C          2.5316893832       -1.0516524839        1.8056403299
 C         -0.9328962542        0.7891974643       -1.6513054255
 C         -1.7013765397       -2.6496306496        1.0415803397
 C         -0.5959835661        2.8035849012       -0.3506425019
 C         -2.1427508465       -1.4478139644        3.0959322911
 C          2.6631841937        3.2413134243       -1.6938687963
 C         -0.0398019691        1.4199063908        2.9656991830
 C          3.7768491317        1.1240033867       -1.3248580384
 C          1.9023319399        0.0378424349        2.5394473897
 C         -2.6167926818        2.4913136382       -1.5938703218
 C         -0.3419067656       -3.0225594026        2.9774199731
 C          2.4366487179        1.4614065410       -3.2802652465
 C          1.9852519050        1.7693997852        4.1919340343
 C         -0.6530348593       -2.5313418672       -3.2583074148
 C         -1.4840399186       -3.6133490612       -2.5210016782
 C          0.9944328820        5.5552876637        1.5192455714
 C          2.0355058072        6.1259499570        0.5002014208
 C         -4.2612951676        1.4560801219        3.8806312880
 C         -3.5195893346        2.6262483779        3.1534678107
 C          5.3686126285       -1.7989075550        0.2830812362
 C          4.3303697267       -2.4349317897        1.2434175200
 Br        -4.3393638037        3.1267434593       -2.1237761231
 Br         1.1284445412       -3.9067024570        3.8188788294
 Br         1.6933817360        0.7940739526       -4.9094889392
 Br         2.9648330044        2.7480904397        5.5087606813
 N         -1.1442013977       -1.2548690513       -2.8479213439
 N         -1.1981413105       -3.4961325309       -1.1232693928
 N          0.0282616392        4.8158878081        0.7720381605
 N         -3.7879914427        0.2600085039        3.2708849616
 N          2.6632941591        4.9915320925       -0.0869449493
 N         -2.1265156304        2.4809313862        3.4300977067
 N          4.6492671071       -0.9831339367       -0.6477275279
 N          3.7342549880       -1.3793495545        1.9981674991
 H          0.6243020425       -4.2257317030       -5.0398748736
 H         -0.5919197144       -4.1433588305       -6.3175968196
 H         -0.9441936183       -6.1267630864       -4.8351915597
 H         -2.3133647197       -5.0113267778       -4.7699967107
 H          1.8759369723        6.9488474672        3.7401118138
 H          0.8558150852        8.3731878696        3.5143870924
 H          1.8664881580        8.7746454312        1.2936218177
 H          3.1268035244        8.7041333162        2.5296040273
 H         -6.0748056828        3.0204029323        5.2709651996
 H         -7.3349449048        3.0325026135        4.0329260775
 H         -5.8743209096        5.0516230347        3.8738775142
 H         -5.7704841418        4.0587914293        2.4165143626
 H          7.3238448491       -4.6300920394       -0.0713293825
 H          7.5540222122       -3.3076141246        1.0768893440
 H          6.2850890563       -5.1421597356        2.1447183225
 H          5.0753382418       -5.0765974483        0.8599746702
 H         -0.2389838475       -1.9134528300       -5.2689014735
 H         -1.8886416062       -2.4849066332       -5.0050631337
 H         -1.6879874089       -5.7466039545       -2.4881357581
 H         -0.0363031309       -5.1733324730       -2.7358828943
 H         -0.2357002535        7.3042461141        1.5559780329
 H         -0.3840091059        6.2774886706        2.9853753407
 H          3.6071696313        6.3434296590        1.9339584194
 H          3.7660623101        7.3857295689        0.5169177109
 H         -5.9862646845        1.5034211248        2.6172356660
 H         -6.2687479085        0.7898532985        4.2080577868
 H         -3.7718876125        4.0466747143        4.7317522309
 H         -3.5109174645        4.7640052653        3.1388222659
 H          5.4063600449       -3.4344852672       -1.0956965913
 H          6.8539013866       -2.4234373322       -1.1299131291
 H          5.7254731984       -2.8217096608        2.8195202719
 H          4.2857320307       -3.8431572150        2.8595657851
 H          0.8216040662        1.2050772910       -0.4898373888
 H         -3.2894478399       -1.2213582600        1.3161856347
 H          3.8974491209        2.8250592984       -0.0100730257
 H          0.0265003573       -0.1557705881        1.5177605779
 H         -2.7863776334        0.6520496117       -2.7057932710
 H         -0.0441941285       -4.0023035129        1.0826401645
 H         -2.1771308146        4.2394359325       -0.4093268396
 H         -0.8160534575       -1.8859922967        4.7326244048
 H          1.4840297294        3.3710286912       -3.4894872558
 H          0.1771643929        2.9085813688        4.4830331401
 H          3.4566804386       -0.3776371513       -2.8151205636
 H          3.6367770039        0.4699181107        3.7106320126
 H          0.5658042057       -0.7784584220       -1.7772519252
 H         -2.9421277207       -2.4491898898       -0.7305384388
 H          1.1191710147        3.0628430472        0.9451752448
 H         -2.4491015143       -0.1362532169        4.8036346344
 H          1.5006856423        5.0775017317       -1.8021852943
 H         -1.8317133542        1.2960303457        1.7555721790
 H          5.0897821717        0.7674280848        0.3680629434
 H          1.8865259526       -1.5691495091        1.0779174859
 H          0.4075004222       -2.6713654864       -2.9843231503
 H         -2.5475147532       -3.4164281717       -2.7382802300
 H          1.5550229256        4.9056191050        2.2114014285
 H          1.4786403070        6.7262675228       -0.2400905958
 H         -3.9973168500        1.5126970142        4.9510019372
 H         -3.7343731400        2.5153814368        2.0778300269
 H          6.0625621555       -1.2011426546        0.8980025976
 H          3.5857828626       -2.9735941455        0.6311514952
 C         -4.0123266223       -8.4197594457       -6.6614995379
 C         -5.2507146715       -7.7072681955       -7.2089923213
 O         -4.0973658471       -9.8160556915       -6.8927879810
 C         -4.2561296644      -10.0845535834       -8.2758092205
 C         -5.4949169104       -9.3725308515       -8.8230645866
 O         -5.4098689713       -7.9764051408       -8.5918865440
 H         -3.9358992055       -8.2948911364       -5.5813809555
 H         -6.1427493411       -8.0478032119       -6.6634429086
 H         -3.3645589245       -9.7425646073       -8.8211069564
 H         -6.3950168580       -9.7721098412       -8.3337132107
 H         -5.1500937841       -6.6255866055       -7.1192013603
 H         -4.3557790300      -11.1661774044       -8.3673034843
 H         -5.5721072469       -9.4988172232       -9.9030413151
 H         -3.1126946100       -8.0205374278       -7.1515929880