142
-211.12700012
 C          3.8618854975       -6.5915317094        2.7230909946
 C          3.3598303822       -6.8444399715        1.3052176803
 C         -4.1468275988        3.2707876928        4.9938381305
 C         -4.7452767446        3.0211132527        3.6132501403
 C         -3.6226224171        4.5287795816       -3.9413127502
 C         -3.6526591870        3.8757982811       -5.3195675842
 C          8.2772289076       -0.0824313271       -1.5352607131
 C          8.2013473828       -0.6388173165       -2.9533697697
 C          4.1023455732       -5.1023847720        2.9423389569
 C          2.0838587238       -6.0532535490        1.0440627155
 C         -2.8677087402        2.4611715173        5.1744310546
 C         -3.7366185486        3.3708412828        2.5248744259
 C         -3.6511409326        3.4669641399       -2.8477016116
 C         -2.4819272448        2.9124846460       -5.4797313617
 C          7.1275846957        0.8853591953       -1.2824565132
 C          6.8619693827       -1.3301606987       -3.1806310629
 C          1.4359545436        0.1531808987        3.7489318609
 C         -0.3013716284       -0.9839824860       -0.6047533114
 C          1.5595786266        1.5796793214        0.3372301509
 C          1.0398049277       -0.4456609873       -4.0104365033
 C          3.7225475137       -0.1349665703        3.0488621504
 C         -1.4218497609       -2.5241339153        0.8674335815
 C          2.8240029041        2.0847923708        3.3693405442
 C         -2.6381661344       -0.6768157777       -0.1100759751
 C          0.5354782799        3.6962134805       -0.1834513834
 C         -0.3630177440       -2.3644855839       -3.6205658352
 C          2.6762859188        3.1129331449       -1.1447931161
 C          2.0255431561       -2.5229189448       -3.2930470221
 C          2.2808501664       -2.1280137317        3.3531685251
 C          0.9804071068       -2.8589877846        0.3529543048
 C          0.4439570804        2.4145710471        3.9141429617
 C         -1.4882850612        0.9073101374       -1.6331293067
 C         -0.6156123941        2.1193345218        1.3469722412
 C         -1.4173341067       -0.2106698489       -4.1869973681
 C          3.7452432331        0.9414653654       -0.6077966658
 C          3.4693840012       -0.5327301509       -3.6061266187
 C          2.4880778190       -0.6865259298        3.4021406133
 C         -0.2635910330       -2.1164565168        0.2031553554
 C          1.5890863065        1.5385448650        3.7166613775
 C         -1.4800035289       -0.2597963693       -0.7650447250
 C          0.5005762532        2.4722359985        0.4834964041
 C         -0.2285558059       -1.0234534867       -3.9776156993
 C          2.6501838702        1.8917154512       -0.4688254389
 C          2.1650315227       -1.1804095360       -3.6552083510
 C          3.8700032538        1.2371541829        3.0500974887
 C         -2.5843984315       -1.7964605370        0.6994259969
 C          1.6194459094        3.9895169151       -0.9903307783
 C          0.7680276709       -3.0913260236       -3.2933940201
 C          2.8272859872       -4.2981499827        2.6917622351
 C          2.3145292729       -4.5549832886        1.2512713056
 C         -1.8399202023        2.8129928831        4.1019992025
 C         -2.4557051810        2.5586869820        2.6863457095
 C         -2.4739368187        2.5076135545       -2.9891141595
 C         -2.5073053634        1.8330362749       -4.4006779002
 C          5.7765670658        0.1995994450       -1.4952665761
 C          5.6988195567       -0.3697862074       -2.9353222464
 Br         5.5548414833        1.9939088121        2.5605389634
 Br        -4.1655794259       -2.3443940269        1.6216869524
 Br         1.6463545343        5.6521650290       -1.9318909561
 Br         0.5737246865       -4.9249734774       -2.7927290907
 N          3.1150159157       -2.9003613929        2.8036046295
 N          1.0712620971       -3.8676163748        1.1045816833
 N         -0.7044661314        1.9584016477        4.1885896818
 N         -2.5568478698        1.4650143307       -2.0172013028
 N         -1.4834542804        2.9603125301        1.7206723277
 N         -1.3405578727        1.0205642176       -4.4707203692
 N          4.7350012392        1.1667454503       -1.3562086588
 N          4.4615916367       -1.0805653668       -3.0496425286
 H          3.1206899218       -6.9495899682        3.4410432769
 H          4.7901182316       -7.1388586718        2.8955578857
 H          3.1605845931       -7.9074927322        1.1614465025
 H          4.1265879150       -6.5452797562        0.5872443395
 H         -3.9227308195        4.3339668416        5.1072990643
 H         -4.8640579744        2.9929348826        5.7677659471
 H         -5.0263811927        1.9694157141        3.5231154862
 H         -5.6458015423        3.6229988170        3.4817459001
 H         -2.7144304709        5.1275215363       -3.8417596445
 H         -4.4795051832        5.1941231111       -3.8245920288
 H         -3.6008976462        4.6405330399       -6.0961887178
 H         -4.5910881425        3.3306792022       -5.4445799113
 H          9.2252472311        0.4365524608       -1.3857572645
 H          8.2257600473       -0.9037390228       -0.8171219378
 H          9.0108245204       -1.3514042347       -3.1204563875
 H          8.3161345485        0.1765560278       -3.6710309020
 H          4.4375180489       -4.9155990875        3.9646590506
 H          4.8762109072       -4.7409769899        2.2629859499
 H          1.7359133144       -6.2142048906        0.0219283651
 H          1.2929599740       -6.3754194608        1.7231295872
 H         -3.0832575542        1.3934679353        5.1090674505
 H         -2.4278161509        2.6573495723        6.1544162396
 H         -3.4820800598        4.4310368249        2.5680604941
 H         -4.1547433240        3.1634958115        1.5382701497
 H         -4.5762396644        2.8906778531       -2.9005643414
 H         -3.5997624364        3.9342182154       -1.8626762943
 H         -1.5357210612        3.4510964891       -5.4067288059
 H         -2.5193428328        2.4270546667       -6.4571730559
 H          7.1917828968        1.7354927979       -1.9633253124
 H          7.1668964647        1.2686579019       -0.2610573523
 H          6.7555833311       -2.1792478118       -2.5033286638
 H          6.7944086469       -1.7051022228       -4.2039769049
 H          0.4716057550       -0.2488121396        4.0185408816
 H          0.5914940056       -0.6649763025       -1.1235743190
 H          1.5348113685        0.6368381907        0.8650511518
 H          1.1213607241        0.5939076744       -4.2876907663
 H          4.5324551955       -0.7942219066        2.7805539869
 H         -1.3831401336       -3.4012460542        1.4930980634
 H          2.9575911712        3.1556842071        3.3389820356
 H         -3.5472706692       -0.1132791992       -0.2452128449
 H         -0.2862528127        4.3831662284       -0.0601481188
 H         -1.3387148272       -2.8255794971       -3.5890432723
 H          3.5238833945        3.3456582164       -1.7690078024
 H          2.9040715978       -3.0846556539       -3.0188293174
 H          1.3417473224       -2.4907956689        3.7934057378
 H          1.8320537032       -2.4798557323       -0.2343112519
 H          0.6259236397        3.4873441118        3.7533070942
 H         -0.4957709767        1.2666951292       -1.9423843476
 H         -0.6468911911        1.0659059917        1.6621802098
 H         -2.3806223465       -0.7175389030       -4.0290094650
 H          3.6488501775        0.0173134256       -0.0158057473
 H          3.5218039874        0.4703525917       -4.0515243254
 H          2.0274899541       -4.6069928489        3.3859825847
 H          3.0770339860       -4.1794263221        0.5461140966
 H         -1.5641861596        3.8805686893        4.1553547648
 H         -2.6659179350        1.4782221516        2.6245680782
 H         -1.5162220675        3.0494539694       -2.9219988690
 H         -3.4350045802        1.2376526025       -4.4599081746
 H          5.6537183850       -0.6407557606       -0.7892475000
 H          5.7443416819        0.4853987551       -3.6307467371
 C        -10.8938662623       -0.5626534337        1.5237973622
 C        -11.6493922879       -1.4460814355        0.5289740067
 O        -11.8020364642        0.1302392477        2.3639085541
 C        -12.6446855601       -0.7821603804        3.0478921033
 C        -13.4008601725       -1.6651611291        2.0531350014
 O        -12.4941215827       -2.3577202166        1.2117363090
 H        -10.3144162184        0.2012980605        1.0052627024
 H        -12.2544096575       -0.8148635294       -0.1380979490
 H        -12.0386618330       -1.4138599655        3.7132690518
 H        -14.0672920925       -1.0408499471        1.4402821950
 H        -10.9580881998       -2.0516599380       -0.0571605429
 H        -13.3354662282       -0.1776311304        3.6358353238
 H        -13.9802745480       -2.4293197705        2.5715439703
 H        -10.2273400085       -1.1862654591        2.1368200482