142
-211.13007244
 C          4.0099522013       -6.6289952582        2.6923191247
 C          3.6483396564       -6.9423771422        1.2440469944
 C         -5.5088055323        1.9177160051        4.3105978899
 C         -5.9708630492        1.6341968042        2.8851061710
 C         -4.4938911741        3.2818174602       -4.6289037614
 C         -4.3313772053        2.6177503520       -5.9924445059
 C          7.7257755645        0.4717546062       -1.2392235607
 C          7.8413192063       -0.0806086035       -2.6562355713
 C          4.0187607741       -5.1221247321        2.9224696987
 C          2.2934317654       -6.3401344282        0.8921733075
 C         -4.1602984443        1.2576914906        4.5706651115
 C         -4.9343721594        2.1328019534        1.8846509502
 C         -4.4451107728        2.2380946561       -3.5186915421
 C         -3.0234650118        1.8367888122       -6.0527297513
 C          6.4276518402        1.2534470238       -1.0778937369
 C          6.6419904291       -0.9637909228       -2.9803225406
 C          0.5501361558       -0.3242932459        3.5092650229
 C         -0.6642708955       -1.6660520629       -0.9678904988
 C          0.7127575887        1.1088191895        0.1112949968
 C          0.8352388634       -0.9522555831       -4.2639528833
 C          2.8987915754       -0.2544098865        2.9805505984
 C         -1.6526157645       -3.3283234088        0.4653504970
 C          1.6470947970        1.7993607565        3.2157693720
 C         -3.0474826508       -1.6791008969       -0.6219636819
 C         -0.5612225265        3.0633710435       -0.4853179080
 C         -0.2931919072       -3.0599975859       -3.9706494180
 C          1.7069823797        2.8018227102       -1.2816116182
 C          2.0592574058       -2.8628600015       -3.4560984174
 C          1.7587685650       -2.4465223495        3.1926056287
 C          0.8004732571       -3.3331402847        0.1053261805
 C         -0.7904109497        1.7534675981        3.5835909925
 C         -2.0318407271        0.0311263155       -2.1042761374
 C         -1.5882543866        1.3231926978        0.9519707949
 C         -1.6080136029       -1.0843392354       -4.6338003447
 C          3.0335416733        0.8015972592       -0.6631935710
 C          3.2110167069       -0.6783558849       -3.6684784278
 C          1.7414100148       -0.9907658548        3.2471360198
 C         -0.5219873387       -2.7727983471       -0.1363747766
 C          0.4890430657        1.0680735122        3.4764998243
 C         -1.9188867029       -1.1143735922       -1.2147730305
 C         -0.4710402489        1.8394005957        0.1764909892
 C         -0.3318669640       -1.7123819038       -4.3261009903
 C          1.8050047584        1.5820901977       -0.6095318045
 C          2.0256725511       -1.5128683761       -3.8157879856
 C          2.8317658655        1.1240181798        2.9811386748
 C         -2.8910491430       -2.7698305587        0.2134171129
 C          0.5270737829        3.5168513538       -1.2075183027
 C          0.9041985403       -3.6120115220       -3.5510567677
 C          2.6622104046       -4.5075860208        2.5803442860
 C          2.2940171157       -4.8254346351        1.1082079845
 C         -3.1135834108        1.7904627405        3.5960068026
 C         -3.5762753757        1.4847270194        2.1325809908
 C         -3.1348408359        1.4584430586       -3.5601666915
 C         -2.9676977997        0.7750476188       -4.9573793364
 C          5.2146208274        0.3746443823       -1.3898710424
 C          5.3330139719       -0.1897670398       -2.8290378556
 Br         4.4110863678        2.1332423577        2.6103987685
 Br        -4.4353945020       -3.5184912190        1.0526358833
 Br         0.3887838817        5.1788629165       -2.1393367886
 Br         0.9459785806       -5.4564461078       -3.0544296301
 N          2.7351062961       -3.0834235625        2.7072636244
 N          0.9798259168       -4.3193580095        0.8706871543
 N         -1.8699692808        1.1174810739        3.7659460556
 N         -3.1377074823        0.4222780026       -2.5774349668
 N         -2.5974000965        2.0268191100        1.2463979398
 N         -1.6920323978        0.1434121986       -4.9297180034
 N          4.0334824556        1.1755375030       -1.3346078453
 N          4.2282648492       -1.0763002726       -3.0350949629
 H          3.2799738630       -7.0940994829        3.3585634371
 H          4.9929005481       -7.0388560786        2.9305461331
 H          3.6138069606       -8.0220893355        1.0908597094
 H          4.4119946233       -6.5321084692        0.5796599943
 H         -5.4030662841        2.9954198566        4.4491475413
 H         -6.2449116306        1.5458756798        5.0255747627
 H         -6.1146233012        0.5589277851        2.7553479764
 H         -6.9259928377        2.1268868780        2.6949340674
 H         -3.6913594935        4.0076639119       -4.4796162579
 H         -5.4443053569        3.8159607539       -4.5843903469
 H         -4.3385645603        3.3736243432       -6.7793633400
 H         -5.1684079906        1.9383738629       -6.1692560956
 H          8.5706264018        1.1270238422       -1.0217253108
 H          7.7454254176       -0.3524870276       -0.5228837053
 H          8.7589493584       -0.6624199938       -2.7582082728
 H          7.8859471645        0.7473110364       -3.3672973560
 H          4.2512241022       -4.8961765436        3.9651827557
 H          4.7785372376       -4.6490649833        2.2980119482
 H          2.0430389397       -6.5436559382       -0.1506734170
 H          1.5118222443       -6.7753392111        1.5167736729
 H         -4.2344358418        0.1751851051        4.4520878545
 H         -3.8241154726        1.4636221714        5.5887371241
 H         -4.8149593679        3.2135610220        1.9714014154
 H         -5.2479938228        1.9042420603        0.8644064017
 H         -5.2711984440        1.5327847531       -3.6226777048
 H         -4.5306656455        2.7174419806       -2.5418665770
 H         -2.1742887722        2.5099416110       -5.9243416420
 H         -2.9190387311        1.3425634056       -7.0208325348
 H          6.4142356826        2.1088084958       -1.7551205117
 H          6.3316458510        1.6305803466       -0.0579595385
 H          6.6132162722       -1.8230646545       -2.3081415253
 H          6.7090196650       -1.3387649587       -4.0036995191
 H         -0.3580718932       -0.8707432759        3.7111398265
 H          0.2072184425       -1.2321548435       -1.4373078763
 H          0.7835975567        0.1664307382        0.6357964738
 H          0.7829069753        0.0890888050       -4.5416189516
 H          3.8184782000       -0.7794257159        2.7778874388
 H         -1.5330964833       -4.1836539587        1.1106197498
 H          1.6151523260        2.8780797138        3.1857115015
 H         -4.0151988995       -1.2482810456       -0.8225842040
 H         -1.4795576738        3.6246972753       -0.4228342990
 H         -1.1890505764       -3.6610759641       -4.0121877532
 H          2.5572800264        3.1597560899       -1.8393923244
 H          2.9872484739       -3.2889021771       -3.1099033890
 H          0.8554738511       -2.9480240033        3.5667667877
 H          1.6288375893       -2.8387412298       -0.4269569390
 H         -0.7701761000        2.8435377910        3.4407778020
 H         -1.0814816140        0.5290963253       -2.3470466550
 H         -1.4899111385        0.2751876454        1.2716491448
 H         -2.4955657921       -1.7270619156       -4.5389172774
 H          3.0285539016       -0.1316442160       -0.0776265640
 H          3.1472215873        0.3246879010       -4.1125293171
 H          1.8686241613       -4.9334316276        3.2175026529
 H          3.0438683790       -4.3420063130        0.4572265297
 H         -3.0169436761        2.8842762044        3.6895001011
 H         -3.6388528299        0.3876047852        2.0426317573
 H         -2.2724862574        2.1337623084       -3.4350042432
 H         -3.7909913946        0.0483543805       -5.0703518237
 H          5.1650967276       -0.4795105898       -0.6915155447
 H          5.3033752254        0.6676436948       -3.5225991154
 C         -3.3976027600        5.2727315868        5.8685297618
 C         -4.6802811632        5.5423117371        6.6569956587
 O         -3.6900822770        5.0633177943        4.4968489930
 C         -4.3832802379        6.1777055674        3.9573379550
 C         -5.6659528195        6.4447107759        4.7463800049
 O         -5.3720784895        6.6552516899        6.1172134096
 H         -2.9079029189        4.3641711166        6.2199163663
 H         -5.3279176077        4.6543736559        6.6234034205
 H         -3.7357086587        7.0650806000        3.9956927273
 H         -6.3489761548        5.5889494816        4.6440227014
 H         -4.4529738744        5.7963402396        7.6923123228
 H         -4.6065772021        5.9268343075        2.9203765661
 H         -6.1552518833        7.3534300917        4.3959807215
 H         -2.7154673578        6.1288981310        5.9709138484