142
-211.12807930
 C          0.5068713449       -7.1728912869        1.8681483949
 C         -0.0101112317       -7.1703602113        0.4331242308
 C         -4.8198179639        4.1541319970        4.9268993297
 C         -5.4198894634        4.1815524925        3.5247371584
 C         -3.6698006776        5.9746423327       -3.9426432883
 C         -3.8305083056        5.4556279664       -5.3679844210
 C          6.5008325816       -1.7904543990       -1.7287301040
 C          6.3397619610       -2.1938145874       -3.1908223901
 C          1.1170158326       -5.8196205675        2.2147813247
 C         -1.0323414327       -6.0570855856        0.2382631568
 C         -3.7905965748        3.0356507237        5.0452849830
 C         -4.3236195536        4.3515843975        2.4788837614
 C         -4.0038143846        4.8796671633       -2.9357009145
 C         -2.9456824170        4.2349092028       -5.5941700679
 C          5.6339128991       -0.5772920411       -1.4142348977
 C          4.8766954136       -2.4880108098       -3.5015605062
 C         -0.1478586672       -0.1482957559        3.4711072922
 C         -1.9891139074       -0.4440364410       -1.0247510289
 C          0.3929614638        1.4246833379        0.1883370649
 C         -0.4735174316       -0.0358819065       -4.3569564266
 C          2.0097007940       -0.9361549332        2.7451564891
 C         -3.5001906889       -1.7364147304        0.3319047549
 C          1.6760900321        1.4065018242        3.2347023176
 C         -4.1742771335        0.4277602735       -0.5109094280
 C         -0.0263530118        3.7706067131       -0.1580613774
 C         -2.3443508453       -1.5390805349       -4.1507021119
 C          1.9171324981        2.7245151970       -1.1463716104
 C         -0.0949541983       -2.3490424818       -3.8024000065
 C          0.1126911045       -2.5270904934        2.8893718191
 C         -1.2573401252       -2.6492369967       -0.2024362016
 C         -0.5588682400        2.2689335043        3.8077707617
 C         -2.6178744399        1.7609381454       -1.9093452192
 C         -1.5947435829        2.4334599736        1.2230710904
 C         -2.7748143758        0.8541345175       -4.5474585535
 C          2.3642744659        0.3122281488       -0.7873446800
 C          1.8308823912       -0.7935079062       -3.9210166711
 C          0.6718452724       -1.1921231619        3.0577257984
 C         -2.2630822646       -1.6003205638       -0.3005431206
 C          0.3400708178        1.1555133875        3.5442922894
 C         -2.9345819716        0.5727340879       -1.1323924251
 C         -0.4004357514        2.5492725075        0.4010381877
 C         -1.8494527588       -0.2580479036       -4.3915700182
 C          1.5515632061        1.5027215561       -0.5785290791
 C          0.4053646866       -1.0674680470       -4.0477273209
 C          2.4872949714        0.3544056028        2.8485430587
 C         -4.4298234203       -0.7207630744        0.2155244611
 C          1.1214688247        3.8326558895       -0.9266672543
 C         -1.4566884381       -2.5624688897       -3.8692913031
 C          0.0979457462       -4.6957680382        2.0305243515
 C         -0.4263817064       -4.6921705984        0.5718265435
 C         -2.6769203918        3.2049658859        4.0152406039
 C         -3.2973575366        3.2277762427        2.5788681044
 C         -3.1145735887        3.6581223469       -3.1439726965
 C         -3.2830375755        3.1228652975       -4.6043846047
 C          4.1605116659       -0.8649728584       -1.7100418896
 C          3.9956843359       -1.2773797298       -3.1953131858
 Br         4.3097945845        0.7143575845        2.4010791116
 Br        -6.1171851247       -0.9010788367        1.0938237928
 Br         1.6144453704        5.5012279182       -1.7167275697
 Br        -2.1438428974       -4.3120303936       -3.5259059742
 N          0.7306286426       -3.4327822725        2.2631752777
 N         -1.4445369139       -3.6949319655        0.4772013172
 N         -1.7907793982        2.0911126294        4.0382766106
 N         -3.4936216000        2.6047503640       -2.2573307518
 N         -2.2288503926        3.4390920695        1.6554804873
 N         -2.3683177801        2.0390513008       -4.7289249813
 N          3.4017691919        0.3273447811       -1.5041659234
 N          2.6213540055       -1.6249982264       -3.3937410552
 H         -0.3179810738       -7.3854618489        2.5518497406
 H          1.2588592094       -7.9536163879        1.9943464665
 H         -0.4732840275       -8.1301684984        0.1992962680
 H          0.8243663063       -7.0222780618       -0.2558260583
 H         -4.3398334148        5.1127766658        5.1368569750
 H         -5.6069810792        4.0019863839        5.6670553949
 H         -5.9556146239        3.2477308928        3.3397864062
 H         -6.1339014941        5.0022682582        3.4400819171
 H         -2.6401472074        6.3058679905       -3.7898760242
 H         -4.3268433230        6.8305434061       -3.7804772357
 H         -3.5613546142        6.2355548838       -6.0820586742
 H         -4.8744189832        5.1845173432       -5.5417696308
 H          7.5444841467       -1.5527132752       -1.5173936482
 H          6.2082256744       -2.6233103069       -1.0855619528
 H          6.9415268706       -3.0788254705       -3.4042884742
 H          6.6920273589       -1.3834728539       -3.8328896759
 H          1.4632755749       -5.8104263566        3.2503675649
 H          1.9744261794       -5.6159140390        1.5710328717
 H         -1.3867641815       -6.0387184345       -0.7940951194
 H         -1.8949120837       -6.2172505591        0.8869368144
 H         -4.2648593227        2.0660527253        4.8849874823
 H         -3.3443466775        3.0324486896        6.0418860348
 H         -3.8094889079        5.3040256013        2.6175181906
 H         -4.7509764784        4.3415454323        1.4746157175
 H         -5.0454971228        4.5717886706       -3.0396205325
 H         -3.8589441037        5.2429416021       -1.9166821087
 H         -1.8946934919        4.5007887918       -5.4697843678
 H         -3.0788582527        3.8501851014       -6.6073987808
 H          5.9445813111        0.2766378337       -2.0180803586
 H          5.7309790082       -0.2987246736       -0.3632586314
 H          4.5252272812       -3.3295723758       -2.9021554775
 H          4.7550625461       -2.7504755400       -4.5544804663
 H         -1.1858715417       -0.3200461862        3.7102877939
 H         -1.0339764807       -0.3340867301       -1.5184332155
 H          0.1067793165        0.4822128129        0.6332772775
 H         -0.1117689567        0.9633217078       -4.5439408893
 H          2.6379437736       -1.7518126925        2.4251742773
 H         -3.7032901800       -2.6340338584        0.8934027797
 H          2.0677633173        2.4113831359        3.2828960859
 H         -4.9027439665        1.2168843966       -0.6053356992
 H         -0.6435799576        4.6371263089        0.0166118961
 H         -3.4074072474       -1.7261893669       -4.1724744684
 H          2.8155398402        2.7759765993       -1.7400596213
 H          0.5944553153       -3.1428178080       -3.5633100920
 H         -0.8925973198       -2.6791086587        3.3059671035
 H         -0.3264270371       -2.4661732487       -0.7625811636
 H         -0.1148242293        3.2726353198        3.7356625399
 H         -1.5579542988        1.8703020249       -2.1827364959
 H         -1.9042627745        1.4031581607        1.4529183374
 H         -3.8420220722        0.6101044226       -4.4409948071
 H          2.0112399318       -0.5975951381       -0.2759831331
 H          2.1621944243        0.1910577400       -4.2789665003
 H         -0.7713525571       -4.8445543054        2.6933082469
 H          0.4252389708       -4.4734929065       -0.0965803955
 H         -2.1472820497        4.1625005283        4.1609686643
 H         -3.7751286230        2.2459323234        2.4272438080
 H         -2.0508720036        3.9229893321       -3.0270328221
 H         -4.3321327056        2.7986866946       -4.7182910853
 H          3.7952876831       -1.6973164824       -1.0825690020
 H          4.2914396908       -0.4122723850       -3.8126343110
 C          7.4015373240       -4.1614468624        6.2839393990
 C          8.7266737591       -3.4036603719        6.1815110544
 O          6.3156420501       -3.2553062775        6.3874409323
 C          6.2990761952       -2.3663023371        5.2828552049
 C          7.6254012869       -1.6112431941        5.1763266069
 O          8.7093457561       -2.5193049299        5.0738807011
 H          7.3719064598       -4.7764453489        7.1834926388
 H          8.8961217798       -2.8325790893        7.1058842866
 H          6.1232741561       -2.9327721315        4.3571182963
 H          7.7597190751       -0.9776435614        6.0649348665
 H          9.5563108846       -4.0900193942        6.0113740417
 H          5.4730965596       -1.6777270069        5.4601291544
 H          7.6530449089       -0.9981563553        4.2756070033
 H          7.2693146619       -4.7923580858        5.3931105374