142
-211.12679483
 C          6.3546480433       -1.0881977232       -4.8194424218
 C          5.7735482471       -2.3526191541       -5.4438165520
 C         -2.7311957760        4.6447439077        4.6931481948
 C         -1.6525612450        5.6253235361        5.1421473451
 C         -6.4691870586        0.1812614037       -2.1653524249
 C         -5.9924113296        1.5113700229       -1.5906363557
 C          6.9428675434       -3.8656614022        3.7098737985
 C          5.9274082284       -4.8806568482        3.1950692572
 C          5.2385491558       -0.1231056642       -4.4386307640
 C          4.7983272637       -3.0192683879       -4.4805609921
 C         -2.5527992016        4.2939233511        3.2202028776
 C         -0.2660286487        5.0409053943        4.8972424447
 C         -5.2787435526       -0.7073226880       -2.5077004153
 C         -5.1278571894        1.2802476856       -0.3563413965
 C          6.7654693971       -2.5300924678        2.9969511233
 C          4.5089922482       -4.3569960765        3.3852079963
 C          1.2720663598        1.4825144820       -0.4571616610
 C         -0.6038177664       -2.6526649587       -2.0216623317
 C          3.2863715103        2.2742297642        2.5480307381
 C          0.1324062345       -1.1174110929        1.2687005897
 C          0.9844806441        1.8858047697       -2.8127198951
 C          1.2218694740       -3.9580561659       -1.1474173227
 C         -0.4825982248        2.9494903051       -1.2115903823
 C         -0.9238170912       -3.9802301112       -0.0372539834
 C          3.6050474765        3.6047393996        0.5657793799
 C         -1.6175212647       -0.5327171555        2.8166394709
 C          4.9037699890        1.5942636957        0.8981120526
 C          0.4459503234       -1.5003513442        3.6244296719
 C          2.7992702658        0.3801205125       -2.0475279749
 C          1.5891353984       -2.5326951435       -3.1412801231
 C         -0.1826026079        2.5414948896        1.2169787399
 C         -2.7576044796       -2.5271930693       -0.8085794874
 C          1.8247131756        4.2302307819        2.1518523363
 C         -1.9456959621       -0.1408511541        0.3894722406
 C          4.5232859505        0.1719773342        2.8931966015
 C          2.2486498039       -2.1212376869        2.0408572174
 C          1.6742194271        1.2628138839       -1.7710642754
 C          0.7202567039       -3.0682507710       -2.1012512957
 C          0.1972573386        2.3200937444       -0.1695135322
 C         -1.4265603488       -3.0885423077       -0.9838864728
 C          2.9450971553        3.3820139086        1.7735635910
 C         -1.1358668428       -0.5946456133        1.5095964885
 C          4.2484677157        1.3707527678        2.1119567003
 C          0.9262220562       -1.5758782412        2.3157185179
 C         -0.0801766921        2.7141894572       -2.5134022187
 C          0.3889809757       -4.4046840354       -0.1418554761
 C          4.5781787366        2.7107887936        0.1551213785
 C         -0.8137891703       -0.9793631585        3.8493809603
 C          4.2574524737       -0.7755641517       -3.4627928001
 C          3.6695083652       -2.0652622341       -4.0917853252
 C         -1.1729791030        3.6964976695        2.9644535176
 C         -0.0660626987        4.7034121543        3.4220556459
 C         -4.4170251644       -0.9660060679       -1.2746301342
 C         -3.9275547068        0.3985184239       -0.6858592680
 C          5.3486422457       -1.9901286843        3.1871948974
 C          4.3146779502       -3.0210420895        2.6652023879
 Br        -1.0325107559        3.5558475582       -3.9405877235
 Br         1.0739739976       -5.6162928380        1.1672726979
 Br         5.4700107336        3.0168137485       -1.5068836409
 Br        -1.4629591244       -0.8594202863        5.6426730497
 N          3.1717299551        0.1208579223       -3.2241874891
 N          2.8418463299       -2.6862126217       -3.1027710140
 N         -0.9796513800        3.4582741276        1.5700219230
 N         -3.2382463510       -1.6846838219       -1.6219117045
 N          1.1741675954        4.0346373354        3.2199970806
 N         -3.1814232946        0.1078068184        0.4965349895
 N          5.1869676765       -0.7924215740        2.4200840311
 N          3.0121331686       -2.5172363709        2.9632416283
 H          6.9281187845       -1.3511006852       -3.9278555952
 H          7.0305630248       -0.5987124539       -5.5222759042
 H          6.5746094184       -3.0513441623       -5.6908874239
 H          5.2526634079       -2.0957086972       -6.3688501274
 H         -2.6675861412        3.7340920411        5.2930850732
 H         -3.7196404157        5.0808624029        4.8460213402
 H         -1.7557150413        6.5603821963        4.5867404620
 H         -1.7694799774        5.8489175011        6.2037258913
 H         -7.1025494666       -0.3264596679       -1.4341818045
 H         -7.0630448527        0.3542903036       -3.0642682770
 H         -6.8493005195        2.1315239466       -1.3227642629
 H         -5.4114795957        2.0464862990       -2.3451697161
 H          7.9570295133       -4.2334759312        3.5451540945
 H          6.8051886447       -3.7254576065        4.7843327083
 H          6.0374363827       -5.8255358767        3.7294578317
 H          6.1058157669       -5.0706812831        2.1344426474
 H          5.6500096826        0.7736567839       -3.9714201627
 H          4.6847527628        0.1844552075       -5.3269476464
 H          4.3602822459       -3.9099411027       -4.9357893761
 H          5.3170424961       -3.3266180969       -3.5709226484
 H         -2.6649671471        5.1849010066        2.6002922423
 H         -3.3062029014        3.5683164213        2.9086152869
 H         -0.1309851394        4.1291071019        5.4813644996
 H          0.5060307920        5.7519518073        5.1983209237
 H         -4.6583869028       -0.2322222996       -3.2694039854
 H         -5.6196435541       -1.6674141455       -2.9006061317
 H         -5.7084244107        0.7946286445        0.4296641592
 H         -4.7607072479        2.2314639756        0.0330679011
 H          6.9492435864       -2.6455067910        1.9274138160
 H          7.4737463871       -1.7940640429        3.3829266093
 H          4.2993787881       -4.2081833852        4.4455822292
 H          3.7816042131       -5.0716670544        2.9955061726
 H          1.8040166656        1.0054086972        0.3537408196
 H         -1.0121254821       -1.9609546770       -2.7421320347
 H          2.7620444839        2.1197722055        3.4783121468
 H          0.4977405188       -1.1748425834        0.2531361953
 H          1.3017846502        1.7088779050       -3.8277309445
 H          2.2503274125       -4.2742039791       -1.2173241300
 H         -1.3100312388        3.6003407940       -0.9788653917
 H         -1.5484986151       -4.3256360646        0.7727016619
 H          3.3510970420        4.4575223258       -0.0456556322
 H         -2.6026782860       -0.1318799787        2.9930266173
 H          5.6486977246        0.8882486693        0.5676562398
 H          1.0687529467       -1.8552464987        4.4296554770
 H          3.3001264816       -0.0415788809       -1.1614870190
 H          1.0878773748       -1.9646953025       -3.9371898483
 H          0.2822226494        1.8583755988        1.9430681510
 H         -3.2945516075       -2.8378114118        0.0997376608
 H          1.5468505430        5.0119549561        1.4298124948
 H         -1.4082653516       -0.0399394276       -0.5649748309
 H          4.0882522574        0.1500500333        3.9019885049
 H          2.5321739303       -2.1654375033        0.9771485764
 H          4.7715270615       -1.0570356172       -2.5267458176
 H          3.0888571086       -1.7634487923       -4.9798807923
 H         -1.0273187800        2.7778884292        3.5564578374
 H         -0.1611444168        5.6063469340        2.7941563263
 H         -4.9993956813       -1.4752228593       -0.4870380274
 H         -3.2965198347        0.8671759920       -1.4588806290
 H          5.1346796193       -1.8219197099        4.2562885042
 H          4.4708395991       -3.1399431608        1.5784281031
 C        -13.4507915863       -1.2271771831       -5.2245450426
 C        -12.3745805430       -0.1613182320       -5.4407811330
 O        -13.8952678206       -1.2202842163       -3.8781194653
 C        -14.3847882516        0.0615862785       -3.5205429643
 C        -13.3086441302        1.1274681219       -3.7368871057
 O        -12.8636865125        1.1204166610       -5.0830894409
 H        -13.0540351718       -2.2254823362       -5.4097143235
 H        -11.4917737177       -0.4010005270       -4.8305154310
 H        -15.2676643172        0.3009688138       -4.1307202400
 H        -12.4579539904        0.9323064625       -3.0680182943
 H        -12.0939352367       -0.0982856492       -6.4922220928
 H        -14.6656543407       -0.0016022616       -2.4691558647
 H        -13.7058178926        2.1256352408       -3.5521386711
 H        -14.3015298497       -1.0318946515       -5.8932799075