142
-211.12859396
 C          2.6320693808       -6.9406560287        2.0803644658
 C          2.2871469707       -7.0206208801        0.5967330942
 C         -4.8249804969        3.3336177808        4.3957820481
 C         -5.2734395147        3.2679833789        2.9393665266
 C         -3.0971554395        5.3232271145       -4.3173371883
 C         -3.0307401891        4.7870094570       -5.7437726296
 C          7.9758551980       -0.5412014338       -0.9873577039
 C          8.0368939043       -0.9706983752       -2.4496603898
 C          2.9590474478       -5.5042690318        2.4722879195
 C          1.1180010263       -6.0986170944        0.2722383494
 C         -3.6442456852        2.3988317212        4.6327816409
 C         -4.1180056664        3.6212169105        2.0094570799
 C         -3.3351188759        4.1852302318       -3.3311156227
 C         -1.9329255398        3.7364768497       -5.8679861532
 C          6.8803304626        0.4983846796       -0.7840132739
 C          6.6878507945       -1.5211847644       -2.8976563981
 C          0.6184512709       -0.1312140840        3.4867275205
 C         -0.6434450851       -0.7221982357       -1.1571191189
 C          1.2373771490        1.5462771513        0.2573675614
 C          1.1067374018       -0.0427604852       -4.3282950712
 C          2.9445452938       -0.5476265811        3.0202252040
 C         -2.0450631571       -2.2618007937        0.0510939802
 C          2.1780569340        1.7039409625        3.4447202178
 C         -2.9875229613       -0.2412411111       -0.8852551793
 C          0.4504649844        3.7794612957       -0.1829245293
 C         -0.4865317896       -1.8486854774       -4.2859117993
 C          2.6349418637        3.0866740258       -0.9544229186
 C          1.8226422985       -2.2560603587       -3.7034918500
 C          1.3350895721       -2.4320279451        2.9713642261
 C          0.3635200554       -2.7742242430       -0.2334161673
 C         -0.2188662706        2.1828283824        3.7514792106
 C         -1.5462729291        1.3452873689       -2.1333142034
 C         -0.9912400280        2.1942323583        1.0665997079
 C         -1.2832231352        0.4344630780       -4.7582991885
 C          3.4613135542        0.7948927759       -0.4964300407
 C          3.4516200129       -0.3886430091       -3.6535591464
 C          1.6403067081       -1.0227814801        3.1813303352
 C         -0.7901059597       -1.9120917356       -0.4506014415
 C          0.8744951980        1.2344570365        3.6008302112
 C         -1.7326928105        0.1173690383       -1.3762376487
 C          0.2423130946        2.5145773229        0.3656334192
 C         -0.1994376230       -0.5005216981       -4.4957427065
 C          2.4350219422        1.8234246539       -0.3947567685
 C          2.1154508657       -0.9065133885       -3.9174927525
 C          3.1900576577        0.8025658597        3.1658010007
 C         -3.1172443743       -1.4201741547       -0.1746931734
 C          1.6396476960        4.0381213926       -0.8393608829
 C          0.5321989876       -2.7028117636       -3.9023497844
 C          1.7901274364       -4.5712288707        2.1588878875
 C          1.4397806639       -4.6514542907        0.6507805752
 C         -2.4723710800        2.7559262939        3.7220836155
 C         -2.9352014889        2.6835858377        2.2293362305
 C         -2.2352033885        3.1338503320       -3.4362892828
 C         -2.1675132333        2.5809787848       -4.8985202836
 C          5.5188529117       -0.0480987582       -1.2187610015
 C          5.5812756116       -0.4850085482       -2.7048765140
 Br         4.9710744289        1.4560457455        2.9379827544
 Br        -4.8321457838       -1.8932608628        0.5237414574
 Br         1.9073010512        5.7612664690       -1.6207957957
 Br         0.1275269613       -4.5461214129       -3.6031349110
 N          2.1673591035       -3.2193658042        2.4405418046
 N          0.2831662505       -3.8431417396        0.4310339728
 N         -1.4223156348        1.8030518603        3.8504649735
 N         -2.5142202673        2.0287209872       -2.5762509128
 N         -1.8272409883        3.0760289825        1.4182497539
 N         -1.0718830764        1.6721580502       -4.9185971789
 N          4.5441772251        0.9902202756       -1.1126052055
 N          4.3163796606       -1.0688593513       -3.0340427122
 H          1.7840098434       -7.2943291371        2.6709188432
 H          3.4873575606       -7.5813643462        2.3014351227
 H          2.0244030105       -8.0447039539        0.3271584764
 H          3.1561964177       -6.7284130921        0.0031902148
 H         -4.5322293890        4.3571061573        4.6411516754
 H         -5.6489859685        3.0523494423        5.0532853945
 H         -5.6260244626        2.2595491743        2.7120617417
 H         -6.1000157557        3.9600872192        2.7715041052
 H         -2.1579411587        5.8245462999       -4.0728576190
 H         -3.9022998129        6.0544564592       -4.2301333736
 H         -2.8321362560        5.6027611797       -6.4406946000
 H         -3.9917376773        4.3413348509       -6.0107941039
 H          8.9341454959       -0.1201400045       -0.6794250780
 H          7.7726024171       -1.4111835006       -0.3590719860
 H          8.8040410892       -1.7351065452       -2.5841890884
 H          8.3034606828       -0.1123424939       -3.0703217813
 H          3.1800660880       -5.4404427273        3.5397351157
 H          3.8359530943       -5.1537330763        1.9253038511
 H          0.8844162776       -6.1367760651       -0.7934461007
 H          0.2280556763       -6.4074170330        0.8227500794
 H         -3.9329176197        1.3658788387        4.4329374604
 H         -3.3097925828        2.4618479455        5.6702736129
 H         -3.7858977424        4.6454117979        2.1865309905
 H         -4.4316241258        3.5434419382        0.9669500814
 H         -4.2943798884        3.7042409369       -3.5290584332
 H         -3.3527684957        4.5657934880       -2.3082915429
 H         -0.9595252047        4.1784792197       -5.6492632195
 H         -1.9015381132        3.3364943694       -6.8835789398
 H          7.0939762254        1.3932452189       -1.3705897495
 H          6.8197954710        0.7910297651        0.2659508177
 H          6.4316477575       -2.4102414922       -2.3188992298
 H          6.7215948108       -1.8037414051       -3.9518909771
 H         -0.3974368829       -0.4734136615        3.6093946893
 H          0.3252651433       -0.4474046662       -1.5497455825
 H          1.0774926605        0.5706179049        0.6939896168
 H          1.3070014549        1.0045152325       -4.4936261260
 H          3.7304481723       -1.2465928733        2.7828818862
 H         -2.1489950198       -3.1840044017        0.5996693417
 H          2.3917257888        2.7588293317        3.5291085856
 H         -3.8260906852        0.4118356440       -1.0657795948
 H         -0.3230884661        4.5244685829       -0.0887045943
 H         -1.4934409401       -2.2177804697       -4.4102529180
 H          3.5644325242        3.2916549187       -1.4606452458
 H          2.6114852091       -2.9183753214       -3.3847602933
 H          0.3274332088       -2.7522640149        3.2702784513
 H          1.3054414025       -2.4295792563       -0.6891644919
 H          0.0593307667        3.2463611795        3.7162116041
 H         -0.4986679329        1.6344176455       -2.3031765400
 H         -1.1431203571        1.1255866896        1.2786394094
 H         -2.2973998066        0.0087279025       -4.7516671881
 H          3.2265731690       -0.1598756783        0.0006384738
 H          3.6420860969        0.6383333893       -3.9945996933
 H          0.8901440883       -4.8695191051        2.7228737781
 H          2.3106611969       -4.2862960404        0.0780624101
 H         -2.1257634057        3.7867859483        3.9110049206
 H         -3.2242811325        1.6366742999        2.0404763515
 H         -1.2483843950        3.5757235122       -3.2213714964
 H         -3.1290969386        2.0804498877       -5.1070869312
 H          5.2457244862       -0.9311558252       -0.6142108154
 H          5.7825753171        0.4180682159       -3.3056964716
 C         -7.2506915941       -1.2461129548        4.9362230793
 C         -6.2519837914       -2.3962881335        5.0777576972
 O         -8.5693368439       -1.6943911043        5.2016100239
 C         -8.6511754375       -2.2721382993        6.4932733288
 C         -7.6520679400       -3.4226287450        6.6331292114
 O         -6.3337331049       -2.9719251950        6.3715971702
 H         -7.2592084793       -0.8637717955        3.9157810086
 H         -6.4652299192       -3.1623951433        4.3187593266
 H         -8.4380781547       -1.5058707579        7.2529589964
 H         -7.9132806002       -4.2239247392        5.9265039316
 H         -5.2278555976       -2.0404451121        4.9670332684
 H         -9.6749488404       -2.6297792012        6.6032892758
 H         -7.6455412911       -3.8119226226        7.6514033793
 H         -6.9892959991       -0.4424035400        5.6400196184