142
-211.13115305
 C          3.2083655911       -6.4833385661        3.2008742231
 C          2.2767028912       -6.7795261392        2.0300461809
 C         -2.5574976284        4.6424836890        6.2375183968
 C         -3.5540527756        4.3547662743        5.1191366306
 C         -4.5752599936        4.8856179589       -2.6608578267
 C         -5.1018047010        4.0754894045       -3.8410744070
 C          6.9258120022       -1.2098836926       -2.9462942603
 C          6.3681034210       -1.8832352869       -4.1960241862
 C          3.6871764276       -5.0371499419        3.1453704599
 C          1.0906501948       -5.8227080357        2.0387514393
 C         -1.3840313435        3.6716072174        6.1691431654
 C         -2.8687515723        4.4419760499        3.7600892771
 C         -4.3769894747        3.9878996788       -1.4447139433
 C         -4.1468492264        2.9342250307       -4.1727031084
 C          6.0240336872       -0.0593912694       -2.5158987334
 C          4.9507365401       -2.3827143867       -3.9409810664
 C          2.0284362485        0.6212832807        3.9520271927
 C         -1.0357379139       -0.6353707403        0.4304644808
 C          1.3103594750        1.6460135574        0.4777098560
 C         -0.7112118866       -0.7089658850       -3.2254979682
 C          3.9581067594       -0.0750195962        2.6899102955
 C         -1.8222549131       -1.7962250386        2.3870197849
 C          3.4530475813        2.2751345607        2.9338434860
 C         -3.0484227834        0.1025724835        1.5274392706
 C          0.4497823447        3.8384462546       -0.0253564185
 C         -2.1473005336       -2.3344560925       -2.1770485910
 C          2.1286740291        2.8362684821       -1.4479424245
 C          0.1899217996       -2.8329976203       -2.5353702399
 C          2.4482247021       -1.7882733999        3.6541982120
 C          0.2406819142       -2.5765275210        1.2546062214
 C          1.3918104935        3.0097680322        4.0665386829
 C         -2.2467018662        1.2928882563       -0.4957875934
 C         -0.3923420311        2.6160036477        1.9615717480
 C         -3.0662486902       -0.1221765165       -2.7343784481
 C          3.0278975762        0.5837505546       -0.9369623444
 C          1.7011957483       -1.1271555659       -3.5105595118
 C          2.8280704971       -0.3970704456        3.4462992684
 C         -0.8875612221       -1.6613681274        1.3588755364
 C          2.3217383685        1.9576758256        3.6844146755
 C         -2.1095152695        0.2480403272        0.5070276888
 C          0.4588095468        2.7041290298        0.7854887709
 C         -1.9685248940       -1.0762794274       -2.7489318250
 C          2.1482444196        1.7038179427       -0.6317627330
 C          0.3740835314       -1.5693898443       -3.1028645780
 C          4.2547908335        1.2526317300        2.4581893895
 C         -2.8810422723       -0.9109726603        2.4529526069
 C          1.2803823189        3.8795231365       -1.1300087967
 C         -1.0678999816       -3.1950022947       -2.0975896145
 C          2.5062016697       -4.0676129053        3.1610103259
 C          1.5602175660       -4.3681195839        1.9699585457
 C         -0.6768656124        3.7601664890        4.8192703518
 C         -1.7019985573        3.4633885792        3.6749496088
 C         -3.4136833922        2.8477032803       -1.7584612651
 C         -3.9511147743        2.0151015211       -2.9698826949
 C          4.5995147554       -0.5488165483       -2.2465664377
 C          4.0328504548       -1.2375691109       -3.5146500309
 Br         5.7947947411        1.6954544605        1.4175100711
 Br        -4.1487660773       -1.0837894389        3.8713644520
 Br         1.2438752869        5.4228123518       -2.2558324506
 Br        -1.3222094716       -4.9210097833       -1.3262082988
 N          2.9838270537       -2.7275038490        3.0019777407
 N          0.4280902538       -3.5054714664        2.0867391762
 N          0.3293910066        2.7593672020        4.7076207662
 N         -3.3122112103        1.9578442279       -0.6469327319
 N         -1.0114893475        3.6128578742        2.4341473278
 N         -2.9541635144        1.0341738219       -3.2389030577
 N          3.7689287674        0.5762920672       -1.9573391064
 N          2.7426604910       -1.7601515217       -3.1802582904
 H          2.6782200942       -6.6548125369        4.1403316333
 H          4.0699390290       -7.1525653390        3.1730803609
 H          1.9121304796       -7.8060507472        2.0908198646
 H          2.8238334030       -6.6713752061        1.0910216270
 H         -2.1879310120        5.6660982725        6.1420297931
 H         -3.0479857162        4.5502012103        7.2078245372
 H         -3.9708123470        3.3537666704        5.2515593675
 H         -4.3767011444        5.0704942312        5.1583957042
 H         -3.6221134066        5.3455228333       -2.9313567442
 H         -5.2765365627        5.6839582236       -2.4130304844
 H         -5.2151314939        4.7188661281       -4.7150801730
 H         -6.0839977577        3.6665522330       -3.5930924151
 H          7.9291155905       -0.8280892038       -3.1414167619
 H          6.9946055436       -1.9404051316       -2.1372864324
 H          7.0027422615       -2.7228173759       -4.4845949747
 H          6.3586597051       -1.1679882624       -5.0214993522
 H          4.3322849684       -4.8152720317        3.9979963798
 H          4.2623315149       -4.8644568038        2.2341173697
 H          0.4346082624       -6.0180430141        1.1884460732
 H          0.5065605035       -5.9519053810        2.9511818929
 H         -1.7318526015        2.6469649384        6.3100130311
 H         -0.6597615728        3.8934186661        6.9556405488
 H         -2.4884579368        5.4504235953        3.5894572087
 H         -3.5752166622        4.2080323817        2.9617047497
 H         -5.3293544217        3.5591219155       -1.1287692248
 H         -3.9714754555        4.5625218092       -0.6099979938
 H         -3.1731044732        3.3290897532       -4.4670467713
 H         -4.5359699047        2.3417507120       -5.0034278278
 H          5.9829226650        0.7016949576       -3.2966300185
 H          6.4084998236        0.4102086884       -1.6084730917
 H          4.9520760649       -3.1348899213       -3.1502647646
 H          4.5395228456       -2.8421185944       -4.8422261117
 H          1.1472336112        0.3975101158        4.5330734444
 H         -0.3154095075       -0.5262626639       -0.3678201413
 H          1.3238786581        0.7734923771        1.1154325972
 H         -0.5939283280        0.2711912468       -3.6615370095
 H          4.5719611863       -0.8716834487        2.3012396988
 H         -1.6980708104       -2.5916509476        3.1040531545
 H          3.6925506156        3.3052998813        2.7170863378
 H         -3.8798905832        0.7871365010        1.5752209820
 H         -0.2090754443        4.6546124072        0.2240501430
 H         -3.1181998164       -2.6286832423       -1.8113694017
 H          2.7802744770        2.8718560622       -2.3060850407
 H          1.0356135649       -3.4966001578       -2.4499336717
 H          1.6449209736       -1.9599283944        4.3839041849
 H          0.9137088287       -2.4029433044        0.3996738077
 H          1.6398546143        4.0219575514        3.7147283703
 H         -1.3587449957        1.4572008079       -1.1239705941
 H         -0.4533897064        1.6178454361        2.4196003917
 H         -3.9797655623       -0.4542507689       -2.2219408458
 H          3.0007451398       -0.2505760256       -0.2180612257
 H          1.7368711006       -0.1930298247       -4.0883179292
 H          1.9173978773       -4.1835659997        4.0866465471
 H          2.1197943990       -4.1863121839        1.0353259229
 H         -0.2770913958        4.7749985819        4.6491354612
 H         -2.0476335398        2.4271695022        3.8234086650
 H         -2.4273246345        3.2384572099       -2.0584090090
 H         -4.9084380585        1.5618420164       -2.6593506821
 H          4.5923738467       -1.2870765516       -1.4252236684
 H          3.9704690306       -0.4711997563       -4.3058186166
 C         -4.0653445224       -2.2955981280       -5.4309883761
 C         -5.3061683455       -2.2441150507       -6.3234049030
 O         -4.3664935479       -2.9245218039       -4.1968070241
 C         -4.8760016335       -4.2319363881       -4.4161139713
 C         -6.1140617940       -4.1830016306       -5.3124405896
 O         -5.8142532779       -3.5477466763       -6.5437732253
 H         -3.7152787002       -1.2923455692       -5.1865568029
 H         -6.0770946210       -1.6235130245       -5.8436428818
 H         -4.1005193037       -4.8512738556       -4.8886649836
 H         -6.9169472294       -3.6324776365       -4.8009477317
 H         -5.0621996821       -1.8398587733       -7.3057399426
 H         -5.1236218006       -4.6346799195       -3.4337946149
 H         -6.4533227795       -5.1882592672       -5.5617653493
 H         -3.2666102136       -2.8539847956       -5.9402715654