142
-211.12675297
 C          5.2694034206       -5.8683447632        3.5223363200
 C          4.4104062588       -6.4172705329        2.3877410211
 C         -2.7053970638        3.8948043644        6.2886469911
 C         -3.6449098777        3.3543063026        5.2153846012
 C         -4.8525926334        3.3509647305       -2.5300460362
 C         -5.2050528639        2.4259274459       -3.6905527111
 C          7.6412854545       -0.1928171412       -2.8794478405
 C          7.2323083661       -1.0265214636       -4.0894235934
 C          5.4146004414       -4.3563477533        3.3941691574
 C          3.0419864739       -5.7467274365        2.3848682135
 C         -1.3553767170        3.1898865862        6.2197404375
 C         -3.0261122778        3.5216194203        3.8320952009
 C         -4.4644595014        2.5385045250       -1.2997331806
 C         -4.0353517892        1.5016909268       -4.0096285245
 C          6.5165813730        0.7560979679       -2.4835481988
 C          5.9568270969       -1.8056365112       -3.7898429764
 C          2.5781808325        0.8356154396        4.0144869351
 C         -0.1978631106       -1.2199962471        0.6301179822
 C          1.5829071977        1.5348606014        0.5358293226
 C          0.0733615439       -1.3411019335       -3.0450204867
 C          4.5909568455        0.5149741406        2.7309831395
 C         -0.6940198130       -2.4661629999        2.6289412458
 C          3.5983502799        2.7112978684        2.8996608106
 C         -2.3136173127       -0.9075591730        1.7370771610
 C          0.2553274368        3.4611378983       -0.0356220547
 C         -0.9766711854       -3.1964452787       -1.9238264141
 C          2.0863397748        2.7808686419       -1.4612204752
 C          1.4124353863       -3.1927032537       -2.2833706461
 C          3.5019218504       -1.4388898993        3.7990042856
 C          1.4817171882       -2.8060466974        1.4897104769
 C          1.4487322394        3.0372688425        4.0585932443
 C         -1.8065087787        0.3728622502       -0.3264891894
 C         -0.2613924184        2.1814157732        2.0259527305
 C         -2.3471596816       -1.2433537597       -2.5370447102
 C          3.4675164242        0.8067800162       -0.8764243282
 C          2.5167581060       -1.2495863688       -3.3547704525
 C          3.5689877212       -0.0088984542        3.5272012584
 C          0.1799701902       -2.1597505385        1.5843099919
 C          2.5741210741        2.1915015564        3.6901076389
 C         -1.4379388180       -0.5900736631        0.6995339988
 C          0.5268277461        2.3962202906        0.8225101627
 C         -1.0749561984       -1.9497810410       -2.5404880675
 C          2.3684636840        1.7209107482       -0.5975967311
 C          1.3175977415       -1.9452646745       -2.9060518199
 C          4.5924418522        1.8644882603        2.4423453955
 C         -1.9211130683       -1.8335843271        2.6860423255
 C          1.0357700655        3.6280202050       -1.1648391484
 C          0.2643202077       -3.7985111622       -1.8150655059
 C          4.0484006255       -3.6716255712        3.3974163214
 C          3.1755386565       -4.2290618862        2.2437986992
 C         -0.7151879274        3.3651426447        4.8451315301
 C         -1.6807073485        2.8082474157        3.7470556083
 C         -3.2861401389        1.6187352906       -1.6029109851
 C         -3.6479505836        0.6675410509       -2.7913351195
 C          5.2333423533       -0.0153898890       -2.1687661906
 C          4.8181743869       -0.8649819357       -3.3973952228
 Br         5.9847688472        2.5821615522        1.3483027607
 Br        -3.1106609156       -2.2419703327        4.1246377395
 Br         0.6400207502        5.0688666520       -2.3559432995
 Br         0.3920665004       -5.5009010508       -0.9570851988
 N          4.2167149343       -2.2683266084        3.1701571354
 N          1.8814757593       -3.6347932578        2.3521826507
 N          0.4778073412        2.5954288803        4.7400554670
 N         -2.9896069517        0.7953585258       -0.4745269760
 N         -1.0664839941        3.0451274389        2.4798761005
 N         -2.4733133765       -0.0936891773       -3.0514731351
 N          4.1814564616        0.9153091908       -1.9103234849
 N          3.6716940307       -1.6343348656       -3.0194523729
 H          4.8036975130       -6.1088393556        4.4806312305
 H          6.2574873054       -6.3311753250        3.5021668262
 H          4.2836430764       -7.4950714712        2.5005344940
 H          4.9067220007       -6.2346055154        1.4321174463
 H         -2.5626186888        4.9678371312        6.1414274930
 H         -3.1422135663        3.7453075165        7.2773109894
 H         -3.8379693562        2.2952130784        5.4005385766
 H         -4.5988719745        3.8825801163        5.2534187506
 H         -4.0178928483        3.9940785072       -2.8179009701
 H         -5.7035831232        3.9902877892       -2.2900051282
 H         -5.4537072066        3.0144028581       -4.5751325702
 H         -6.0796469111        1.8268488460       -3.4266704631
 H          8.5376649795        0.3857856454       -3.1077883262
 H          7.8714197414       -0.8538120127       -2.0409820766
 H          8.0303282329       -1.7230869367       -4.3519036140
 H          7.0639607955       -0.3684809668       -4.9448031738
 H          6.0066401866       -3.9579536414        4.2206821058
 H          5.9239699940       -4.1035174753        2.4626921549
 H          2.4334068140       -6.1215613428        1.5597538273
 H          2.5140458387       -5.9595360536        3.3156896461
 H         -1.4755000533        2.1223249771        6.4111105178
 H         -0.6758510577        3.5934796803        6.9732146663
 H         -2.8725791973        4.5786715971        3.6090345245
 H         -3.6858849460        3.1073634517        3.0676606258
 H         -5.3045684761        1.9268696048       -0.9668609644
 H         -4.1831642654        3.2014097059       -0.4795395038
 H         -3.1662816240        2.0840842467       -4.3198481845
 H         -4.2963152792        0.8242544526       -4.8253132517
 H          6.3066645705        1.4540763052       -3.2954452941
 H          6.7981163286        1.3381940623       -1.6040117948
 H          6.1250642212       -2.5038247593       -2.9681173480
 H          5.6473136730       -2.3823791878       -4.6638697514
 H          1.7753441452        0.4534236690        4.6257183191
 H          0.4737959690       -0.9801843674       -0.1819608224
 H          1.7980866617        0.7174496243        1.2093608657
 H         -0.0243476504       -0.3756122267       -3.5167238562
 H          5.3550648009       -0.1476832021        2.3573942818
 H         -0.3921877394       -3.1935117187        3.3652062327
 H          3.6081797579        3.7589511412        2.6390407814
 H         -3.2739620887       -0.4194460421        1.7794586153
 H         -0.5606114983        4.1262011899        0.1973324758
 H         -1.8567937071       -3.6794812787       -1.5267819936
 H          2.6984379614        2.9162605387       -2.3382855520
 H          2.3816932766       -3.6536554277       -2.1804475792
 H          2.7685497937       -1.7470499374        4.5569632794
 H          2.0888857973       -2.5226145773        0.6151313743
 H          1.4678543542        4.0628205618        3.6614821183
 H         -0.9816172822        0.7016683059       -0.9756854611
 H         -0.0997698343        1.2133803760        2.5227444761
 H         -3.1738135690       -1.7449920469       -2.0127821194
 H          3.6312333847        0.0190035157       -0.1238127569
 H          2.3480899016       -0.3548084168       -3.9697602706
 H          3.5133737735       -3.8708029228        4.3413741943
 H          3.6670236811       -3.9709747435        1.2890022189
 H         -0.5438733100        4.4328965355        4.6232629360
 H         -1.7951937641        1.7300938730        3.9464945647
 H         -2.4062038454        2.2008373933       -1.9225268180
 H         -4.4908341682        0.0349061388       -2.4626890855
 H          5.3930005491       -0.7013712014       -1.3180504587
 H          4.5878390557       -0.1657419964       -4.2189860709
 C        -12.2329238931        0.1990719294       -6.0659367451
 C        -12.9506708891        1.5461115647       -6.1719903330
 O        -13.0224376936       -0.8326217256       -6.6337940964
 C        -13.3329759476       -0.5379862505       -7.9854713613
 C        -14.0503050484        0.8092787430       -8.0914963651
 O        -13.2601652345        1.8405242777       -7.5238434083
 H        -12.0743768873       -0.0773807811       -5.0234804623
 H        -13.8773745946        1.5165054797       -5.5808721737
 H        -12.4066210165       -0.5089909220       -8.5772467816
 H        -15.0151517019        0.7545365878       -7.5669232985
 H        -12.3119117094        2.3570578722       -5.8218855832
 H        -13.9722343091       -1.3487192831       -8.3351376093
 H        -14.2090937397        1.0854144159       -9.1339670853
 H        -11.2680213750        0.2541979694       -6.5904936353