142
-211.12692815
 C          2.7946854311       -6.8197389108        2.2281707528
 C          2.3884768066       -6.9144910082        0.7610961615
 C         -4.1648535385        3.7688669227        4.7167029325
 C         -4.6888449098        3.6978914426        3.2860216445
 C         -2.8396117686        5.5580881777       -4.0270194355
 C         -2.8281506245        5.0175036332       -5.4532659173
 C          8.2679487212       -0.5139771907       -1.1862887367
 C          8.2468215084       -0.9634859611       -2.6436313042
 C          3.1828491654       -5.3880448428        2.5788684289
 C          1.2357947101       -5.9622379483        0.4668198560
 C         -3.0066073411        2.7964058012        4.9082792731
 C         -3.5714645515        3.9999613404        2.2937562260
 C         -3.0734615901        4.4279734971       -3.0308247470
 C         -1.7587583116        3.9419618860       -5.6070049628
 C          7.2099966914        0.5559249481       -0.9451594262
 C          6.8642929228       -1.4854081546       -3.0175333328
 C          1.0865252405        0.0873629121        3.5819028610
 C         -0.4304985960       -0.5385748951       -0.9328595957
 C          1.6347307745        1.7550040710        0.3169325839
 C          1.2502135852        0.1062106628       -4.1793937733
 C          3.3725107969       -0.4311248398        3.0282641746
 C         -1.8290416412       -2.0483214978        0.3158037689
 C          2.7184378114        1.8547463341        3.4578672740
 C         -2.7527796538       -0.0033686155       -0.5854154554
 C          0.8956229210        4.0087656319       -0.1008100092
 C         -0.3755381056       -1.6663606709       -4.0510589840
 C          3.0278107241        3.2515167830       -0.9535858376
 C          1.9494050107       -2.1170477568       -3.5716188033
 C          1.6874390627       -2.2482906303        3.0722491215
 C          0.5563117376       -2.6167816891       -0.0465592127
 C          0.3581540880        2.4362541070        3.8603426432
 C         -1.3150010200        1.5496400837       -1.8800172455
 C         -0.5385215392        2.4711654694        1.2154816032
 C         -1.1458469956        0.6294132014       -4.5083506104
 C          3.8074483959        0.9395399777       -0.5161682175
 C          3.6174796411       -0.2836805555       -3.6174782981
 C          2.0572024024       -0.8495938128        3.2467017915
 C         -0.5826515689       -1.7266409544       -0.2246726287
 C          1.4038550199        1.4419825951        3.6713042639
 C         -1.5063807024        0.3265757276       -1.1162668425
 C          0.6731398298        2.7521079161        0.4609677395
 C         -0.0711590226       -0.3257807620       -4.2838609136
 C          2.8139799601        1.9961273188       -0.3814569069
 C          2.2593576461       -0.7753419327       -3.8096112263
 C          3.6798119538        0.9089142118        3.1486450457
 C         -2.8877328367       -1.1808540081        0.1269313136
 C          2.0649743889        4.2312124335       -0.8045004667
 C          0.6422999376       -2.5384923296       -3.7075415006
 C          2.0333725406       -4.4218418794        2.2951403540
 C          1.6149521545       -4.5191491367        0.8052098592
 C         -1.8707627337        3.0980266099        3.9340699234
 C         -2.4090765665        3.0276309004        2.4667021703
 C         -2.0012741887        3.3516313929       -3.1654067430
 C         -1.9897141469        2.7942011553       -4.6274322896
 C          5.8155266145        0.0395264310       -1.3050963929
 C          5.7933064793       -0.4202561035       -2.7857731644
 Br         5.4763703183        1.4843511461        2.8452348329
 Br        -4.5892177847       -1.6142262662        0.8806583265
 Br         2.3503880319        5.9435169065       -1.6033139165
 Br         0.2145559356       -4.3711899033       -3.3771289148
 N          2.4700279403       -3.0794584479        2.5327136649
 N          0.4722271579       -3.6826424916        0.6222429448
 N         -0.8531530127        2.1062861788        4.0214429603
 N         -2.2798737227        2.2548940721       -2.2946533849
 N         -1.3289928178        3.3800981452        1.6015968349
 N         -0.9150054202        1.8622027630       -4.6793459139
 N          4.8743498088        1.1047779756       -1.1680469301
 N          4.5006904094       -0.9792340473       -3.0425469275
 H          1.9599471782       -7.1349296321        2.8581823763
 H          3.6372867669       -7.4838740696        2.4278165466
 H          2.0840805498       -7.9343182842        0.5208231717
 H          3.2414424749       -6.6595470693        0.1283788333
 H         -3.8252851743        4.7848746743        4.9307451395
 H         -4.9629658433        3.5249605393        5.4196420912
 H         -5.0850341284        2.6984350499        3.0929454546
 H         -5.5001640648        4.4145072024        3.1490116396
 H         -1.8823923872        6.0385271908       -3.8122464705
 H         -3.6250433362        6.3075499338       -3.9177585736
 H         -2.6317215585        5.8269812003       -6.1580851428
 H         -3.8065645956        4.5933509463       -5.6903805681
 H          9.2503545425       -0.1138387514       -0.9309691262
 H          8.0736941097       -1.3702263298       -0.5366888738
 H          8.9872685409       -1.7488403821       -2.8045587006
 H          8.5038723023       -0.1202111196       -3.2885002276
 H          3.4494173487       -5.3121493228        3.6350550677
 H          4.0473438549       -5.0763796063        1.9902238512
 H          0.9581577559       -6.0110382463       -0.5878279271
 H          0.3600379106       -6.2340153331        1.0581050616
 H         -3.3414410850        1.7713295512        4.7414796162
 H         -2.6173734833        2.8628699035        5.9263410202
 H         -3.1981457259        5.0150166351        2.4385102841
 H         -3.9403462672        3.9181203325        1.2697799146
 H         -4.0487796720        3.9683023269       -3.1986232646
 H         -3.0516693118        4.8113199988       -2.0091626405
 H         -0.7694014436        4.3621565936       -5.4189280264
 H         -1.7668924719        3.5389221078       -6.6218222650
 H          7.4170873793        1.4371705555       -1.5542355878
 H          7.2080020900        0.8635417962        0.1022451116
 H          6.6153000449       -2.3603865371       -2.4147015874
 H          6.8393316799       -1.7820480756       -4.0681287902
 H          0.0630167637       -0.2104436190        3.7491382401
 H          0.5313521418       -0.2851096954       -1.3556685555
 H          1.4639045491        0.7856034890        0.7632855417
 H          1.4637161191        1.1479547162       -4.3621553015
 H          4.1185520619       -1.1649746987        2.7685417141
 H         -1.9371698566       -2.9697769600        0.8648548224
 H          2.9791538173        2.9003965695        3.5228259970
 H         -3.5811682664        0.6698678308       -0.7368446498
 H          0.1482142841        4.7761841498        0.0208410940
 H         -1.3942213875       -2.0157423440       -4.1271763775
 H          3.9426908152        3.4284404288       -1.4957280214
 H          2.7386345125       -2.7934350214       -3.2848976319
 H          0.6783201584       -2.5211877296        3.4107030906
 H          1.4900978086       -2.2964110513       -0.5355768874
 H          0.6769799877        3.4871953467        3.7997937787
 H         -0.2667766904        1.8142157992       -2.0827877284
 H         -0.7145714700        1.4083279934        1.4377581622
 H         -2.1673465206        0.2239188860       -4.4652271567
 H          3.5641842436       -0.0077961334       -0.0090149709
 H          3.8101345061        0.7377489725       -3.9736818153
 H          1.1487338865       -4.6770927108        2.9027661319
 H          2.4697089845       -4.1883281279        0.1891257478
 H         -1.4759419463        4.1167208918        4.0922851440
 H         -2.7386381095        1.9885564275        2.3018129188
 H         -0.9987044578        3.7713185669       -2.9807073647
 H         -2.9678411855        2.3143638090       -4.8053103466
 H          5.5491847590       -0.8275947747       -0.6751661735
 H          5.9846838866        0.4692005990       -3.4096281334
 C        -10.2859166454       -5.2271806898        4.2869976498
 C        -10.7110062867       -4.6796976725        2.9230609426
 O        -11.0477218557       -4.6307899860        5.3239063894
 C        -12.4333036520       -4.8418666794        5.1108458839
 C        -12.8576344915       -4.2930031233        3.7471023048
 O        -12.0971290928       -4.8913728656        2.7109375148
 H         -9.2439068303       -4.9848068175        4.4956503760
 H        -10.4912962289       -3.6035019200        2.8739465005
 H        -12.6527076636       -5.9184388813        5.1581787534
 H        -12.7115506176       -3.2032945678        3.7277223810
 H        -10.1954161681       -5.2005511404        2.1161893209
 H        -12.9488187030       -4.3216171426        5.9183026817
 H        -13.9002892657       -4.5324338738        3.5376169077
 H        -10.4293683482       -6.3172699142        4.3070292394