142
-211.12687507
 C          5.0654630659       -6.1379140264        3.2359725021
 C          4.5205329416       -6.6029600104        1.8894285298
 C         -4.2773654267        2.5269366528        5.2032390846
 C         -4.9064126544        2.0641927115        3.8929545502
 C         -4.5403755706        2.9239468319       -3.8246061980
 C         -4.5392477512        2.1261223070       -5.1246249589
 C          8.1288973943        0.5719725188       -1.9256628268
 C          8.0519802089       -0.1236604366       -3.2808168879
 C          5.0788747486       -4.6152039416        3.3053884300
 C          3.1209729384       -6.0450765235        1.6612457237
 C         -2.8759944174        1.9464705405        5.3560615240
 C         -4.0312682341        2.4651126542        2.7107140580
 C         -4.3179369762        2.0003809804       -2.6321985599
 C         -3.2286723589        1.3630570063       -5.2798943212
 C          6.8540477855        1.3642023031       -1.6625685225
 C          6.8340642765       -1.0384177225       -3.3382084429
 C          1.6568297212        0.2224058942        3.8367147757
 C         -0.1446233758       -1.5931913113       -0.2395302598
 C          1.3519321718        1.3222420144        0.3080134914
 C          0.9042253196       -1.1876291888       -3.7692169806
 C          3.9146550582        0.2246924897        2.9980540368
 C         -0.9032167397       -3.1285876090        1.4520694251
 C          2.6868869805        2.2979104553        3.1788661246
 C         -2.4638555404       -1.6039406778        0.4094456080
 C         -0.0207333954        3.2057329958       -0.2993660446
 C         -0.1235612686       -3.2649623997       -3.1129825686
 C          2.1287729220        2.8775293695       -1.3569678332
 C          2.2726292860       -2.9967928908       -2.9593201062
 C          2.8351781203       -1.9272467674        3.5897088445
 C          1.4827771012       -3.1394552681        0.7802333834
 C          0.3209691025        2.3049638361        3.8682534924
 C         -1.6868496057       -0.0271904423       -1.3407283111
 C         -0.8204081256        1.6095997788        1.4224129683
 C         -1.5634775598       -1.3804865548       -3.7803734273
 C          3.5555656175        0.9491059235       -0.7338680917
 C          3.3348015176       -0.8374803500       -3.5515549633
 C          2.8093314973       -0.4737212483        3.4913464555
 C          0.1283000896       -2.6170226947        0.6625555647
 C          1.5800414232        1.6038825583        3.6659078489
 C         -1.4333384153       -1.0819971995       -0.3714435135
 C          0.1751922262        2.0517938318        0.4585191245
 C         -0.2423639516       -1.9604769217       -3.5907142656
 C          2.3329611736        1.7278954103       -0.5916732457
 C          2.1582747248       -1.6903137720       -3.4420656520
 C          3.8363905721        1.5958047204        2.8621254237
 C         -2.1767426099       -2.6113034266        1.3121206774
 C          0.9570305473        3.5921431296       -1.1974757095
 C          1.1330119264       -3.7614942732       -2.8147664693
 C          3.6791465155       -4.0430348167        3.0849892825
 C          3.1237176571       -4.5161094457        1.7168774898
 C         -1.9824320952        2.3559204233        4.1881725727
 C         -2.6296021093        1.8791192286        2.8456134022
 C         -3.0042722432        1.2374434193       -2.7689748754
 C         -3.0019297365        0.4186944890       -4.1022496353
 C          5.6235617676        0.4560477774       -1.7070410137
 C          5.5463789082       -0.2561626166       -3.0822284876
 Br         5.3438868741        2.5525401709        2.1816573396
 Br        -3.5844332160       -3.3006122278        2.4049410281
 Br         0.6719379975        5.1569529559       -2.2565600301
 Br         1.2859923969       -5.5463332378       -2.1504432985
 N          3.7471849224       -2.6135929022        3.0497499564
 N          1.7804715628       -4.0439189023        1.6071711758
 N         -0.7198684553        1.7027432990        4.2637603888
 N         -2.8538583516        0.3037533563       -1.6992115309
 N         -1.7910695417        2.3357793128        1.7841088929
 N         -1.7175820617       -0.1902975421       -4.1826827252
 N          4.4493360438        1.2568133439       -1.5686950920
 N          4.4400149167       -1.1630814343       -3.0350141978
 H          4.4385776485       -6.5329571398        4.0384810561
 H          6.0783391270       -6.5171085269        3.3816977022
 H          4.4841933423       -7.6928849509        1.8553113347
 H          5.1822862118       -6.2627542933        1.0899241727
 H         -4.2218332000        3.6178938541        5.2157863886
 H         -4.8942726642        2.2109156889        6.0459656606
 H         -5.0205393906        0.9779190242        3.9077419999
 H         -5.8974267976        2.5058476025        3.7773595685
 H         -3.7456941535        3.6727305828       -3.8566508236
 H         -5.4912595229        3.4458990976       -3.7067729568
 H         -4.6711626202        2.7968717665       -5.9751228958
 H         -5.3724229245        1.4195966822       -5.1193601322
 H          8.9853888466        1.2473336472       -1.8982744538
 H          8.2625336122       -0.1738403640       -1.1390215278
 H          8.9556623821       -0.7107359154       -3.4529715325
 H          7.9811209616        0.6264053336       -4.0716571184
 H          5.4432381169       -4.2804092208        4.2787902538
 H          5.7414681299       -4.2081279126        2.5397104972
 H          2.7380895322       -6.3576385567        0.6879182776
 H          2.4366088352       -6.4146443827        2.4264326056
 H         -2.9194275834        0.8567038811        5.3918965502
 H         -2.4174742915        2.2966314071        6.2831605884
 H         -3.9481548666        3.5514118961        2.6497210091
 H         -4.4673752165        2.1069058576        1.7765446200
 H         -5.1318340553        1.2778412565       -2.5538233745
 H         -4.2878337579        2.5769086157       -1.7059450010
 H         -2.3893273534        2.0584602038       -5.3314408401
 H         -3.2365494479        0.7747730742       -6.1998253085
 H          6.7312634384        2.1445263881       -2.4152157618
 H          6.8967218212        1.8449405000       -0.6833832786
 H          6.9154282450       -1.8230133733       -2.5840262414
 H          6.7620378275       -1.5178641809       -4.3166351460
 H          0.7882584573       -0.2953724718        4.2131368274
 H          0.6492850142       -1.1940947236       -0.8547995057
 H          1.5056925202        0.4350842117        0.9059311517
 H          0.7898159375       -0.1801722638       -4.1382461632
 H          4.8040378224       -0.3237691046        2.7320426858
 H         -0.6822484657       -3.9197230491        2.1502776535
 H          2.6424170774        3.3676751192        3.0402157165
 H         -3.4594261300       -1.2060383825        0.2961068581
 H         -0.9326893000        3.7666056075       -0.1721140258
 H         -1.0024263864       -3.8751052772       -2.9683745629
 H          2.8934854622        3.1834399873       -2.0525600338
 H          3.2496204073       -3.3779118971       -2.7086833940
 H          1.9952171457       -2.3839355449        4.1312300467
 H          2.2240543625       -2.6938298935        0.0977267620
 H          0.3163716370        3.3723901839        3.6031121433
 H         -0.7881283117        0.4561583528       -1.7515135011
 H         -0.6639624548        0.5979321311        1.8248866880
 H         -2.4138359638       -2.0205910416       -3.5029132917
 H          3.6445905828        0.0786557206       -0.0644377455
 H          3.1878650903        0.1139156800       -4.0812609581
 H          2.9838846207       -4.3994549004        3.8638268282
 H          3.7711779956       -4.1007950113        0.9244444877
 H         -1.8820880783        3.4539249801        4.1342649161
 H         -2.6667876117        0.7780696501        2.8876131161
 H         -2.1503236359        1.9325820214       -2.8245811163
 H         -3.8135021846       -0.3264012076       -4.0328541194
 H          5.6863681349       -0.3205196465       -0.9243224470
 H          5.4031579539        0.5235189822       -3.8494209003
 C        -13.0478883465        3.0905204489        0.3315764204
 C        -11.6386291384        3.5424207924        0.7195928261
 O        -13.7132383063        4.1066637640       -0.4000368352
 C        -12.9684592426        4.4609701994       -1.5533204780
 C        -11.5589177429        4.9124489973       -1.1655981222
 O        -10.8936428857        3.8966980679       -0.4336259330
 H        -13.6557430714        2.9046451563        1.2171246944
 H        -11.7031990907        4.4074751276        1.3953861679
 H        -12.9048804336        3.5961143773       -2.2295294848
 H        -11.6202729822        5.8251081259       -0.5552646752
 H        -11.0886354867        2.7340497822        1.2015267984
 H        -13.5183850519        5.2696532323       -2.0348642570
 H        -10.9513140372        5.0976959849       -2.0514876480
 H        -12.9865548172        2.1782435624       -0.2793390691