142
-211.12686374
 C          0.4384869285       -6.4654461906        2.7322675501
 C         -0.4241734708       -6.3783517922        1.4773874288
 C         -1.5300645673        5.7788773800        6.2506275207
 C         -2.4661175809        5.9153720683        5.0539914943
 C         -2.5249208279        7.1695698906       -2.7017724306
 C         -3.1484396699        6.6652512676       -3.9992991783
 C          6.2981764649       -2.3599399884       -2.7160804901
 C          5.6722793981       -2.7500204509       -4.0512036374
 C          1.3706013593       -5.2624785299        2.8199322472
 C         -1.2234877175       -5.0809534762        1.4710788843
 C         -0.7505645519        4.4711277400        6.1716862798
 C         -1.6795198937        5.8401451241        3.7501147934
 C         -2.7755771141        6.1793526598       -1.5699998909
 C         -2.5929815809        5.2919493135       -4.3594676976
 C          5.7792561251       -1.0008080473       -2.2625342064
 C          4.1521854999       -2.7681962969       -3.9391632532
 C          1.6232304031        0.5746823100        3.9358512972
 C         -1.3565774751        0.5973013008        0.1278297041
 C          1.6051011024        1.9931621724        0.5140455789
 C         -0.6967818694        0.6505029206       -3.5137661245
 C          3.3160082864       -0.6695002202        2.7579451069
 C         -2.6794809259       -0.3430771382        1.9055730577
 C          3.6053215260        1.6967651026        3.1524260214
 C         -3.1216820836        1.9007963132        1.1205269120
 C          1.5481363874        4.3702173403        0.1308324201
 C         -2.6848943390       -0.4636377842       -2.7341716752
 C          2.9312156208        2.9493302036       -1.2528483136
 C         -0.6089450142       -1.6844878235       -2.9294949630
 C          1.2398791573       -1.8159816425        3.4805807945
 C         -0.8773699603       -1.7013952084        0.8799029386
 C          1.8148675828        3.0271655035        4.2003248009
 C         -1.7658151649        2.8697792562       -0.7163596828
 C          0.1872211530        3.3893809418        1.9576100717
 C         -2.7657593686        1.9618235125       -3.1617456050
 C          3.0102700083        0.5035031900       -0.8595851525
 C          1.4629849608       -0.5286149356       -3.6477371410
 C          2.0792425330       -0.6272463339        3.4071632050
 C         -1.6492149920       -0.4696370209        0.9719942425
 C          2.3694825242        1.7439286891        3.7961533238
 C         -2.0849483387        1.7823372180        0.1956741006
 C          1.1187248004        3.2545367566        0.8485390422
 C         -2.0487805088        0.6955389191       -3.1764735131
 C          2.5125458014        1.8317067374       -0.5285278543
 C          0.0310620738       -0.5259810253       -3.3779862830
 C          4.0591718368        0.4886615522        2.6532797810
 C         -3.3930388903        0.8386962361        1.9632860399
 C          2.4400934504        4.1947192564       -0.9110391666
 C         -1.9546077186       -1.6340364036       -2.6276033836
 C          0.5803252665       -3.9545228338        2.8211452860
 C         -0.2968852802       -3.8657223777        1.5459059742
 C          0.0578032240        4.3923124063        4.8791878527
 C         -0.9059046930        4.5291372935        3.6543994959
 C         -2.2112262277        4.8045278210       -1.9132979810
 C         -2.8529763125        4.2848677923       -3.2421136179
 C          4.2544861805       -1.0093093473       -2.1360785324
 C          3.6188623188       -1.4074014099       -3.4930471191
 Br         5.7478673641        0.4351309874        1.7609088246
 Br        -4.7913643328        1.0175427480        3.2532360859
 Br         3.0007036224        5.7216596322       -1.9138892387
 Br        -2.8307318906       -3.2148939417       -2.0086544378
 N          1.4876469917       -2.8475875858        2.7959903780
 N         -1.0887513163       -2.6813649124        1.6450836146
 N          0.6766014435        3.1172045240        4.7465640378
 N         -2.5307743188        3.8622887666       -0.8890440410
 N         -0.1016989102        4.5071522269        2.4745764830
 N         -2.2152765196        3.0431610556       -3.5220646148
 N          3.8063677558        0.3087829184       -1.8181234352
 N          2.2032644908       -1.4895285318       -3.2970497511
 H         -0.2044024603       -6.4921108262        3.6148896092
 H          1.0296534802       -7.3826419325        2.7179907090
 H         -1.1107958668       -7.2251739046        1.4343602074
 H          0.2137977546       -6.4164241760        0.5917306915
 H         -0.8307964624        6.6180925481        6.2642846807
 H         -2.1040318514        5.8031116669        7.1783087192
 H         -3.2065186490        5.1125952306        5.0776621745
 H         -2.9984703998        6.8665686461        5.1030062620
 H         -1.4489307680        7.2969391190       -2.8404632046
 H         -2.9478279049        8.1397909820       -2.4364514108
 H         -2.9397765702        7.3645333144       -4.8105226655
 H         -4.2324710480        6.5989709538       -3.8812593443
 H          7.3845216099       -2.3183866466       -2.8087269020
 H          6.0527532445       -3.1124507942       -1.9635031383
 H          6.0258262441       -3.7360922856       -4.3571353176
 H          5.9717534522       -2.0315509688       -4.8174803367
 H          1.9694912250       -5.3090101046        3.7318162436
 H          2.0535906785       -5.2510480896        1.9688146286
 H         -1.8244811794       -5.0056924663        0.5629032509
 H         -1.9004505535       -5.0490329324        2.3261478940
 H         -1.4335731505        3.6207142050        6.2041034430
 H         -0.0640213963        4.3850356744        7.0164414754
 H         -0.9698485722        6.6665213605        3.6853549942
 H         -2.3542375869        5.9065528362        2.8947472251
 H         -3.8458704577        6.0776341170       -1.3833542583
 H         -2.3034669299        6.5265786382       -0.6492054805
 H         -1.5163480439        5.3510848209       -4.5271573003
 H         -3.0573928634        4.9214793548       -5.2757016608
 H          6.0591834744       -0.2294238137       -2.9816144470
 H          6.2076101123       -0.7305702317       -1.2954695140
 H          3.8360971318       -3.5173500201       -3.2112697855
 H          3.7011977940       -3.0215692077       -4.9008103464
 H          0.6689367885        0.6338240017        4.4358711043
 H         -0.5609667420        0.5049312425       -0.5978540127
 H          1.2789248838        1.1319924326        1.0798813400
 H         -0.2235532553        1.5591379672       -3.8523817848
 H          3.6615761103       -1.6062075486        2.3508411196
 H         -2.8971965513       -1.1734444037        2.5577343338
 H          4.1942283737        2.5940269328        3.0354091033
 H         -3.6838301069        2.8198310984        1.1615987250
 H          1.1700435337        5.3431824168        0.4005188983
 H         -3.7310873131       -0.4442583470       -2.4682854221
 H          3.6325314603        2.8145359767       -2.0604387820
 H         -0.0362122446       -2.5922871677       -2.8272993456
 H          0.3638344167       -1.7415682799        4.1396435485
 H         -0.1025201254       -1.7179628516        0.0968679987
 H          2.4182421916        3.9124466456        3.9514432664
 H         -0.8131586851        2.7629837911       -1.2558171586
 H         -0.2422776693        2.4454875190        2.3244111666
 H         -3.7922819674        1.9287443666       -2.7680558046
 H          2.6464439255       -0.3135641118       -0.2163369936
 H          1.8571865223        0.3699504525       -4.1422207976
 H         -0.0966693558       -3.9075353663        3.6909257209
 H          0.3760892095       -3.8375997559        0.6707109137
 H          0.7873410395        5.2186734370        4.8193363769
 H         -1.5901953441        3.6657807870        3.6944279250
 H         -1.1243363095        4.8592655321       -2.0892651873
 H         -3.9356461715        4.1667798990       -3.0617941234
 H          3.9325644082       -1.7465207969       -1.3794345331
 H          3.8849082841       -0.6247161770       -4.2235835838
 C         -3.1214844460      -13.5794852896       -4.5120138908
 C         -4.4920761074      -13.9533344664       -3.9438803030
 O         -2.9198526359      -12.1777276611       -4.4459618384
 C         -3.0489632832      -11.7165625464       -3.1112475277
 C         -4.4193234159      -12.0907855217       -2.5429723556
 O         -4.6204786686      -13.4928729465       -2.6091490167
 H         -3.0495976236      -13.8487406290       -5.5658896973
 H         -5.2818899995      -13.5059419032       -4.5645775301
 H         -2.2589461512      -12.1635230000       -2.4905095638
 H         -5.2068319012      -11.5791408313       -3.1149449061
 H         -4.6168348039      -15.0356232949       -3.9066054403
 H         -2.9250767594      -10.6342420783       -3.1489328530
 H         -4.4911328269      -11.8216765364       -1.4891109107
 H         -2.3342841376      -14.0913360255       -3.9396182344