142
-211.12682643
 C          4.8713629808       -6.2993583436        2.9834548372
 C          4.4261044892       -6.6721018868        1.5730234085
 C         -4.5784758478        2.2461741529        4.8184292272
 C         -5.1048599293        1.8644211955        3.4386115540
 C         -4.0885815673        3.2973334973       -4.2139742092
 C         -4.0003097528        2.5822889301       -5.5584567126
 C          8.3261172685        0.6737954793       -1.4572260334
 C          8.3587746614        0.0636131916       -2.8547232244
 C          4.8874081991       -4.7844086520        3.1518598058
 C          3.0508101088       -6.0861851657        1.2772657266
 C         -3.1890119449        1.6594518272        5.0407081526
 C         -4.1454925968        2.3386510818        2.3527160672
 C         -3.9710288493        2.2970582474       -3.0693961809
 C         -2.6941152070        1.8032457034       -5.6635722033
 C          7.0349010709        1.4558410641       -1.2489724055
 C          7.1480904868       -0.8376305921       -3.0679613742
 C          1.4475693124        0.0301597973        3.7546867044
 C         -0.0291436149       -1.4961752929       -0.5941962825
 C          1.4037960121        1.3269361848        0.2925839100
 C          1.2754546015       -0.9018834214       -3.9993409875
 C          3.7596531236        0.0789989126        3.0819260976
 C         -0.9268866426       -3.1130902908        0.9465919432
 C          2.5196432003        2.1404846156        3.3098393914
 C         -2.3905911426       -1.5121294206       -0.1219797000
 C          0.0778575881        3.2469549734       -0.3035576366
 C          0.1788347736       -3.0001135821       -3.5560790580
 C          2.2983418363        2.9715959703       -1.2204873831
 C          2.5562842531       -2.7737988964       -3.1891349185
 C          2.6401380531       -2.1030140840        3.4499588162
 C          1.5031239275       -3.1173784492        0.4554048503
 C          0.1088446988        2.1091464347        3.8226277551
 C         -1.4689526576        0.1512186288       -1.7147463967
 C         -0.8444888160        1.5563981888        1.2596041540
 C         -1.1843006301       -1.0572334081       -4.2193425713
 C          3.6769173193        1.0050603782       -0.6064002394
 C          3.6804054737       -0.5953695094       -3.5580221755
 C          2.6224315570       -0.6461601223        3.4475367615
 C          0.1657774619       -2.5721468384        0.2665446142
 C          1.3813727395        1.4200274551        3.6692180129
 C         -1.2994362467       -0.9610138095       -0.7926418230
 C          0.2187516123        2.0507336839        0.3989238016
 C          0.1112711166       -1.6680531616       -3.9622011398
 C          2.4471820063        1.7795286234       -0.5092909616
 C          2.4935535535       -1.4396067282       -3.6001933635
 C          3.6898114409        1.4564038042        3.0315576389
 C         -2.1815610656       -2.5720614475        0.7410621102
 C          1.1178858873        3.6803677234       -1.1050399815
 C          1.4021010019       -3.5303222247       -3.1858477278
 C          3.5107926346       -4.1862232722        2.8651157940
 C          3.0587030091       -4.5639080747        1.4311205296
 C         -2.2127358109        2.1399069125        3.9700681654
 C         -2.7555367379        1.7448047078        2.5566737920
 C         -2.6612004868        1.5204366358       -3.1559973795
 C         -2.5704870548        0.7844651678       -4.5335176237
 C          5.8114436818        0.5591622669       -1.4494557976
 C          5.8455155828       -0.0636347803       -2.8688330770
 Br         5.2411131530        2.4502784752        2.5250339189
 Br        -3.6739644602       -3.3023451982        1.6847254004
 Br         0.9094157563        5.3042377480       -2.0903764828
 Br         1.4838998114       -5.3530654232       -2.6188262602
 N          3.5861619817       -2.7580963431        2.9301108283
 N          1.7309235262       -4.0702104523        1.2496003119
 N         -0.9562391910        1.4836829952        4.0995985145
 N         -2.6022878693        0.5220438262       -2.1366174671
 N         -1.8414673281        2.2619096816        1.5891734735
 N         -1.2920887813        0.1584087104       -4.5549238934
 N          4.6299645029        1.3557594938       -1.3541875027
 N          4.7361580871       -0.9625418357       -2.9707538369
 H          4.1842753764       -6.7385522258        3.7101433910
 H          5.8685307658       -6.6972079222        3.1791730304
 H          4.3861717248       -7.7572296312        1.4665234937
 H          5.1479138618       -6.2888083054        0.8484889029
 H         -4.5308642538        3.3343555558        4.9021530958
 H         -5.2551896690        1.8779547963        5.5911146752
 H         -5.2132781341        0.7791502761        3.3779482858
 H         -6.0873167660        2.3107497407        3.2769211495
 H         -3.2829418770        4.0311141662       -4.1384364501
 H         -5.0378430150        3.8296084966       -4.1355788586
 H         -4.0557769358        3.3076696444       -6.3717212021
 H         -4.8426651770        1.8943846883       -5.6615815567
 H          9.1781418947        1.3411707398       -1.3190086138
 H          8.3951015243       -0.1198992503       -0.7100984268
 H          9.2725149958       -0.5177920239       -2.9888374849
 H          8.3540115708        0.8614892702       -3.6006656972
 H          5.1793127079       -4.5162458852        4.1693341405
 H          5.6076372037       -4.3356560467        2.4656520591
 H          2.7403236290       -6.3323206486        0.2600756129
 H          2.3087596715       -6.4964163273        1.9639397355
 H         -3.2287038917        0.5694642262        5.0072776926
 H         -2.8033442759        1.9533293424        6.0191225351
 H         -4.0630999043        3.4266293618        2.3662423444
 H         -4.5081980580        2.0396834149        1.3676855912
 H         -4.7980363122        1.5858176410       -3.0989489796
 H         -4.0035441039        2.8134137483       -2.1083271213
 H         -1.8422975816        2.4831306625       -5.6098570756
 H         -2.6427168079        1.2724482247       -6.6164749299
 H          6.9741786735        2.2822555428       -1.9587715910
 H          6.9987156173        1.8745118841       -0.2414417356
 H          7.1663957931       -1.6683046525       -2.3603980785
 H          7.1552178645       -1.2545738098       -4.0771604026
 H          0.5546872204       -0.5079578792        4.0328452638
 H          0.8126350003       -1.0740044662       -1.1245684052
 H          1.5143865737        0.4064035706        0.8480677602
 H          1.2006472279        0.1271871743       -4.3149920895
 H          4.6664881957       -0.4538056700        2.8445947300
 H         -0.7664958120       -3.9445561948        1.6138037883
 H          2.4840857287        3.2171669773        3.2385275593
 H         -3.3711187614       -1.0953383801       -0.2865696879
 H         -0.8409866118        3.8032023233       -0.2104213103
 H         -0.7141807905       -3.6058111890       -3.5209967940
 H          3.1110594619        3.3139452446       -1.8405912482
 H          3.5055117829       -3.1822932665       -2.8814775097
 H          1.7632850183       -2.5895351141        3.8992171459
 H          2.2972142305       -2.6427197588       -0.1429209335
 H          0.1201355939        3.1912797186        3.6262770827
 H         -0.5366696694        0.6427393439       -2.0299132014
 H         -0.7154585624        0.5230976491        1.6140662629
 H         -2.0611373336       -1.6994279462       -4.0503585847
 H          3.7160637598        0.0972675488        0.0165928253
 H          3.5839748309        0.3880753530       -4.0385693679
 H          2.7574008192       -4.5868625482        3.5643877672
 H          3.7676877307       -4.1065876604        0.7184460465
 H         -2.1141392803        3.2392039468        3.9905662102
 H         -2.7920639120        0.6432949579        2.5306595976
 H         -1.7966462757        2.2026283503       -3.1062190922
 H         -3.3951270405        0.0515172182       -4.5713444347
 H          5.8112373240       -0.2656260964       -0.7149885560
 H          5.7679465300        0.7642204594       -3.5938876668
 C        -13.4095832715        3.8145184358        0.5358710473
 C        -12.2338792772        2.9543264066        1.0035013888
 O        -14.5852934739        3.4862206452        1.2571878238
 C        -14.3764690284        3.6426746744        2.6508441428
 C        -13.2005541366        2.7826801234        3.1183615409
 O        -12.0250298713        3.1113501560        2.3970913489
 H        -13.6348854532        3.6296101166       -0.5145336232
 H        -12.4394400902        1.8975420156        0.7795764385
 H        -14.1714777856        4.6995354460        2.8751433139
 H        -13.4392834640        1.7199467545        2.9673592742
 H        -11.3073973364        3.2636406595        0.5196105158
 H        -15.3028687568        3.3329175338        3.1346564644
 H        -12.9756571276        2.9675637914        4.1688480772
 H        -13.1708518249        4.8773029213        0.6868060868