142
-211.12679880
 C          4.3356945415       -6.1001966256        3.6423237498
 C          3.3266516335       -6.5628714770        2.5963090709
 C         -1.9207055477        4.7940443385        6.5508393321
 C         -3.0197388076        4.3424026483        5.5943774770
 C         -4.8658686112        4.2397797076       -2.0643744756
 C         -5.4436107848        3.3386444152       -3.1511025869
 C          6.9095595529       -0.9908057539       -3.2637965657
 C          6.2905971396       -1.8130635939       -4.3895415090
 C          4.6805580275       -4.6302186717        3.4327836035
 C          2.0682637704       -5.7056083757        2.6567056606
 C         -0.6888878291        3.9079228147        6.4039528460
 C         -2.5159209633        4.3648062652        4.1556286153
 C         -4.4987801600        3.4201456830       -0.8323810639
 C         -4.4509645671        2.2410127636       -3.5174416473
 C          5.9533826572        0.1103770982       -2.8216338282
 C          4.9600738482       -2.4074722986       -3.9423125212
 C          2.6617341047        0.9341485035        4.0003125348
 C         -0.6497583733       -0.8378763315        0.9315977975
 C          1.4623695882        1.6403665063        0.5759351744
 C         -0.7245580625       -1.1274346163       -2.7527271572
 C          4.4903411862        0.2787783735        2.5763395809
 C         -1.1441748273       -1.9259733861        3.0211174242
 C          3.8308786586        2.5993671773        2.7111701178
 C         -2.6037133377       -0.1904174494        2.1818292844
 C          0.3389794628        3.6980713519        0.0247710324
 C         -1.9154630639       -2.7716003405       -1.4568318537
 C          1.9228862174        2.7264529394       -1.5224443918
 C          0.4131921356       -3.1138058781       -2.0038028440
 C          3.2360004837       -1.4557331900        3.8268189455
 C          0.8633334741       -2.6098942682        1.7381820884
 C          1.8568973205        3.2737239199        4.0232904782
 C         -2.0998830466        0.9282538777        0.0261327028
 C         -0.1350798528        2.5844328544        2.1892644609
 C         -3.0542992248       -0.6700973173       -2.0577293476
 C          3.0971276907        0.6169356219       -0.9601294891
 C          1.6718592758       -1.3851996315       -3.2593783972
 C          3.4788595240       -0.0619078888        3.4784108346
 C         -0.3258734486       -1.7843618303        1.8989008243
 C          2.8177187138        2.2628227229        3.6079071971
 C         -1.7821200231       -0.0382828154        1.0655928336
 C          0.5559578679        2.6432934712        0.9105399036
 C         -1.8968105948       -1.5492566267       -2.1272004630
 C          2.1523690960        1.6759038415       -0.6321243513
 C          0.4341368503       -1.8919162641       -2.6815373954
 C          4.6540721218        1.6017871497        2.2194753041
 C         -2.2644406320       -1.1262722330        3.1415181484
 C          1.0203932357        3.7144493051       -1.1782199467
 C         -0.7620845799       -3.5348907272       -1.4155842977
 C          3.4275418238       -3.7576671499        3.4961271439
 C          2.3999688087       -4.2284731279        2.4350499645
 C         -0.1622921737        3.9334623074        4.9713523109
 C         -1.2916993614        3.4696801524        3.9929885355
 C         -3.4933486492        2.3288104372       -1.1850083307
 C         -4.0868363200        1.4008797805       -2.2959991863
 C          4.6178863511       -0.4760768081       -2.3593078766
 C          3.9899340978       -1.3109086563       -3.5047469699
 Br         6.0319200652        2.0694554576        0.9810607704
 Br        -3.3744956830       -1.3091546983        4.6859756263
 Br         0.6937988221        5.1426318157       -2.4047588230
 Br        -0.7921434790       -5.2020181376       -0.4828662634
 N          3.7723840569       -2.4031361026        3.1873232731
 N          1.2130175151       -3.4534364782        2.6080113772
 N          0.9005439894        3.0009448241        4.8062962026
 N         -3.2202620794        1.5110360556       -0.0465658975
 N         -0.7723602231        3.5674386881        2.6663852457
 N         -3.0589997812        0.4679298024       -2.6117838717
 N          3.7190338681        0.5918591866       -2.0570090969
 N          2.7914938719       -1.9061211357       -2.9960099811
 H          3.9134135649       -6.2359110975        4.6404752279
 H          5.2453200047       -6.6995453300        3.5767827680
 H          3.0603519356       -7.6070035426        2.7674932659
 H          3.7708067605       -6.4871459519        1.6013793965
 H         -1.6508747457        5.8300106948        6.3330675230
 H         -2.2792148515        4.7483129309        7.5804122803
 H         -3.3333028568        3.3284938347        5.8529979570
 H         -3.8875009571        4.9974515387        5.6862589973
 H         -3.9735432236        4.7423030384       -2.4444616122
 H         -5.5924553007        5.0056681492       -1.7886275557
 H         -5.6767556708        3.9274751441       -4.0396471287
 H         -6.3709463226        2.8850874700       -2.7936342521
 H          7.8463115573       -0.5421759865       -3.5979773890
 H          7.1315778388       -1.6416661978       -2.4152794729
 H          6.9677736640       -2.6171261473       -4.6825239869
 H          6.1287062582       -1.1741757574       -5.2605659854
 H          5.3816607495       -4.2896381635        4.1975494574
 H          5.1501984085       -4.4876998998        2.4580437714
 H          1.3529147868       -6.0205067803        1.8946093287
 H          1.5877499052       -5.8067007917        3.6310437639
 H         -0.9314248309        2.8763271728        6.6641797544
 H          0.1058892475        4.2465507755        7.0718312361
 H         -2.2437983389        5.3803445478        3.8635027062
 H         -3.2934866331        4.0142678531        3.4745916299
 H         -5.3876742663        2.9491442479       -0.4096215050
 H         -4.0592787738        4.0609403653       -0.0659319349
 H         -3.5358999763        2.6776019423       -3.9208906807
 H         -4.8745191419        1.5821689173       -4.2783092851
 H          5.7590280481        0.7970503826       -3.6469694592
 H          6.3850404135        0.6852619544       -2.0001393024
 H          5.1132694682       -3.0872824175       -3.1024393148
 H          4.5021696290       -2.9744404987       -4.7554754215
 H          1.8701707601        0.6951473956        4.6935154355
 H         -0.0214718400       -0.7252684891        0.0594005698
 H          1.6366108167        0.8301473323        1.2697217222
 H         -0.7314490744       -0.1777303571       -3.2647752130
 H          5.1191370665       -0.5005474802        2.1765664810
 H         -0.8844253186       -2.6603318329        3.7664232982
 H          3.9631037941        3.6236694372        2.3966818970
 H         -3.4810871807        0.4292573287        2.2741995672
 H         -0.3599301451        4.4730507606        0.2953091992
 H         -2.8154226251       -3.1114958132       -0.9667933980
 H          2.4591645010        2.7443235104       -2.4574939490
 H          1.3167765266       -3.6999126211       -1.9531955365
 H          2.5320491841       -1.6256786805        4.6532157915
 H          1.4313200607       -2.4475826115        0.8082659191
 H          1.9801201417        4.2691627227        3.5719355816
 H         -1.2964910025        1.1106125477       -0.7027837282
 H         -0.0561969989        1.6237343185        2.7191926706
 H         -3.8964870246       -1.0298949631       -1.4485896209
 H          3.2308924194       -0.1553591985       -0.1858760128
 H          1.5697476693       -0.5028418168       -3.9062083480
 H          2.9430338547       -3.8405879498        4.4837929584
 H          2.8471796004       -4.0779056252        1.4365272652
 H          0.1301669886        4.9564445415        4.6769315096
 H         -1.5300322397        2.4268827540        4.2594070396
 H         -2.5702543838        2.7655661843       -1.6002127897
 H         -4.9809932770        0.9100810648       -1.8737850331
 H          4.7678975025       -1.1440572260       -1.4926984921
 H          3.7795586897       -0.6201357976       -4.3388394092
 C         -9.7722492510       -1.9201492499       -8.1540210443
 C         -8.3085163900       -1.4805747557       -8.0795410009
 O        -10.1973085623       -2.0109372246       -9.5032031948
 C         -9.3706574467       -2.9058585908      -10.2284861810
 C         -7.9073599173       -2.4653150863      -10.1547572091
 O         -7.4815453193       -2.3749887301       -8.8051242876
 H        -10.4240230451       -1.1876580184       -7.6775760924
 H         -8.2070783658       -0.4674775662       -8.4949039431
 H         -9.4713242258       -3.9186090204       -9.8120204778
 H         -7.7930412225       -1.4862357749      -10.6420570346
 H         -7.9477405560       -1.4984986228       -7.0510095759
 H         -9.7316890848       -2.8892250584      -11.2568436011
 H         -7.2550521173       -3.1967235466      -10.6320238991
 H         -9.8876233431       -2.8986912807       -7.6656339517