142
-211.12942034
 C          5.2504123504       -5.8107862938        3.5523946993
 C          4.4352630256       -6.4577853844        2.4374020367
 C         -3.3793566275        3.4016185684        6.2750662184
 C         -4.3135859317        2.7449793901        5.2638399585
 C         -5.6072858282        2.5405642053       -2.4555629756
 C         -5.8846737780        1.6341424409       -3.6506295675
 C          6.9885836042        0.0384527569       -3.0904640203
 C          6.6550560724       -0.8835844657       -4.2589523434
 C          5.2673035623       -4.2957501894        3.3855736895
 C          3.0148303289       -5.9061113019        2.4296167733
 C         -1.9807280288        2.8034484015        6.1750007668
 C         -3.7660742153        2.9057888092        3.8501409043
 C         -5.1862228276        1.7185997252       -1.2424465105
 C         -4.6634605214        0.7787162400       -3.9684124065
 C          5.7734400035        0.8748821447       -2.7078461609
 C          5.4752134695       -1.7822867960       -3.9063630399
 C          2.0358749400        0.6689995617        3.9052556577
 C         -0.6246797990       -1.7078655454        0.6351815157
 C          0.8715893459        1.2272793617        0.4272664868
 C         -0.4189080284       -1.8275256909       -3.0800072875
 C          4.0472263710        0.4668521838        2.5957964401
 C         -0.9943003365       -2.9810695070        2.6441728323
 C          2.8957511521        2.5869005846        2.7285562351
 C         -2.7521175881       -1.5774877028        1.7567728309
 C         -0.7007495318        2.9477253337       -0.1781216002
 C         -1.3040323784       -3.7276274015       -1.8945508508
 C          1.1354078356        2.4049948517       -1.6555213248
 C          1.0721034733       -3.5504302184       -2.3003272511
 C          3.1267699107       -1.5348592156        3.7311946351
 C          1.1955130930       -3.1325855874        1.4922990659
 C          0.7484687017        2.7826558517        3.9218553160
 C         -2.3714278923       -0.2630530075       -0.3122585492
 C         -0.9750647983        1.7353584781        1.9686682694
 C         -2.8265886159       -1.8915944663       -2.5232560907
 C          2.7730508337        0.6502017724       -1.0298223952
 C          1.9992307987       -1.5512787246       -3.4413311164
 C          3.0795049057       -0.1116124823        3.4215933264
 C         -0.1579933155       -2.6040056411        1.5918160413
 C          1.9256409485        2.0124718410        3.5488488814
 C         -1.9151907511       -1.1897869863        0.7111090823
 C         -0.2657661843        1.9750616988        0.7211202978
 C         -1.5080241765       -2.5074018691       -2.5372519088
 C          1.5825996467        1.4411694947       -0.7498470720
 C          0.8701972549       -2.3309126158       -2.9519438370
 C          3.9434017105        1.8050695677        2.2749580336
 C         -2.2726113680       -2.4603144400        2.7068530264
 C          0.0009603634        3.1341468703       -1.3549320462
 C         -0.0182426821       -4.2296679777       -1.7956115676
 C          3.8486286690       -3.7273738457        3.3831756216
 C          3.0162857071       -4.3861964100        2.2533110562
 C         -1.4109078779        2.9722167308        4.7687615638
 C         -2.3707255926        2.3009345133        3.7325100524
 C         -3.9455153954        0.8899655012       -1.5572496729
 C         -4.2434954622       -0.0604110049       -2.7639908029
 C          4.5878648899       -0.0194778886       -2.3397746398
 C          4.2490300739       -0.9516412650       -3.5313330551
 Br         5.2629197620        2.5972444783        1.1424747445
 Br        -3.4104461034       -2.9641984662        4.1568605063
 Br        -0.6305057999        4.4290955650       -2.6087782334
 Br         0.2553428601       -5.8943418781       -0.8980264134
 N          3.8994089848       -2.3218847543        3.1164868793
 N          1.6763065246       -3.9052245471        2.3653306741
 N         -0.1670559415        2.2907955708        4.6439407908
 N         -3.5830600898        0.0783002246       -0.4399296669
 N         -1.8305099538        2.5430299925        2.4325053547
 N         -3.0266896151       -0.7487440944       -3.0297585606
 N          3.4436809381        0.7975100294       -2.0877826198
 N          3.1886841795       -1.8175366752       -3.1116262568
 H          4.8110170005       -6.0653241187        4.5194493657
 H          6.2738030959       -6.1894189387        3.5369387682
 H          4.4011887890       -7.5394505011        2.5763136116
 H          4.9090291371       -6.2564354588        1.4741233074
 H         -3.3297395339        4.4756960821        6.0818593075
 H         -3.7630824150        3.2583119934        7.2864217283
 H         -4.4119848328        1.6821248654        5.4958624292
 H         -5.3052717070        3.1961907871        5.3232323256
 H         -4.8094711053        3.2410318857       -2.7105461247
 H         -6.4996241418        3.1190499059       -2.2116851302
 H         -6.1370569084        2.2376754871       -4.5236342113
 H         -6.7338962214        0.9845936413       -3.4260383205
 H          7.8124583730        0.7014570756       -3.3589791554
 H          7.3031018294       -0.5587719447       -2.2318295139
 H          7.5201587441       -1.5002875519       -4.5082951602
 H          6.4046868109       -0.2831626759       -5.1363911791
 H          5.8289656534       -3.8282489997        4.1969619017
 H          5.7478236016       -4.0250349739        2.4438521722
 H          2.4354744319       -6.3501229586        1.6178206512
 H          2.5122555426       -6.1414563647        3.3690383878
 H         -2.0067079437        1.7383960055        6.4110336772
 H         -1.3066362354        3.2897621277        6.8831948886
 H         -3.7090531946        3.9620079297        3.5820462876
 H         -4.4194169910        2.4090090891        3.1306386716
 H         -5.9889098755        1.0433246571       -0.9419223818
 H         -4.9614312565        2.3724528246       -0.3978478282
 H         -3.8228362839        1.4131218240       -4.2533984526
 H         -4.8777095882        0.1081576240       -4.8029200520
 H          5.4760021129        1.5142944168       -3.5403872243
 H          6.0042265901        1.5169155707       -1.8556686863
 H          5.7285796273       -2.4246088758       -3.0612688944
 H          5.2174583369       -2.4236684776       -4.7516560367
 H          1.2738164944        0.2437891269        4.5398433374
 H          0.0174783861       -1.4131732854       -0.1828157797
 H          1.2093039890        0.4783363716        1.1294701628
 H         -0.6001196888       -0.8850238604       -3.5728356221
 H          4.8531598262       -0.1465056385        2.2258642174
 H         -0.6237751096       -3.6741472761        3.3821293399
 H          2.8235684273        3.6256397893        2.4432872241
 H         -3.7510300377       -1.1745450332        1.8044237580
 H         -1.5797417663        3.5248419057        0.0595394913
 H         -2.1371653385       -4.2662570172       -1.4686810606
 H          1.6873474488        2.5588194210       -2.5687433454
 H          2.0754317679       -3.9332946745       -2.2038394927
 H          2.4271442411       -1.8789497715        4.5054429785
 H          1.7657023557       -2.8127367401        0.6056045704
 H          0.6795890410        3.7938376977        3.4944382273
 H         -1.5832511059        0.1208248281       -0.9765370317
 H         -0.7069894901        0.8026281008        2.4865046723
 H         -3.6157659609       -2.4492605938       -1.9982832025
 H          3.0470388713       -0.0822424372       -0.2537002440
 H          1.7436936493       -0.6959185223       -4.0819910976
 H          3.3388404927       -3.9438989724        4.3372418950
 H          3.4732012613       -4.1087552077        1.2868945651
 H         -1.3304732694        4.0404170388        4.5017462634
 H         -2.3882011449        1.2247691941        3.9708322545
 H         -3.1106054292        1.5390069919       -1.8688012671
 H         -5.0522039585       -0.7447847701       -2.4545121092
 H          4.8378352973       -0.6535428128       -1.4707524894
 H          3.9403327084       -0.3096018571       -4.3737105599
 C         -5.0843192473        4.4634979890       -7.0046135631
 C         -4.4527863551        5.7511868239       -6.4719265845
 O         -6.1527947143        4.0475817476       -6.1699121846
 C         -7.1262218255        5.0721041152       -6.0545119125
 C         -6.4928652867        6.3587750382       -5.5215029996
 O         -5.4287765731        6.7741079274       -6.3610874277
 H         -4.3618821388        3.6476028924       -7.0067736604
 H         -4.0015761138        5.5633230251       -5.4872147593
 H         -7.5748795417        5.2642266888       -7.0398001210
 H         -6.1130803403        6.1891293619       -4.5039549448
 H         -3.6948676738        6.1260362446       -7.1597864622
 H         -7.8850451819        4.6971572532       -5.3676107287
 H         -7.2152058285        7.1751865681       -5.5176989944
 H         -5.4608501248        4.6331080694       -8.0236763388