142
-211.12896041
 C          0.9012488579       -7.0760851488        2.7420627412
 C          1.8898694604       -6.8118532930        3.8728714079
 C         -4.1300671723        4.9137135674       -3.2221046614
 C         -4.6900756628        4.0104029437       -4.3154592459
 C         -2.1496527732        5.3634533540        4.5111940042
 C         -3.0889597803        5.1964736219        3.3210690919
 C          6.5886417148       -2.1016526080       -3.8891296855
 C          7.0456860122       -1.0378346548       -2.8973389610
 C         -0.0850878293       -5.9211320354        2.6182821831
 C          2.6297415818       -5.5012766548        3.6326201477
 C         -3.9929406409        4.1416369801       -1.9150175688
 C         -3.7922812887        2.7938900552       -4.5073120407
 C         -1.1870754906        4.1847283561        4.6005610130
 C         -2.2912042802        5.0691918234        2.0268801543
 C          5.1702565072       -2.5503332283       -3.5600654242
 C          6.0954686338        0.1523769738       -2.9228065634
 C         -1.0763571331       -0.4825438619        0.5733936734
 C          1.8377766911        0.4190747324        3.2623089960
 C         -0.5371300175       -0.8335024206       -3.2830547099
 C          1.2872159570        2.7746969310       -1.0005353168
 C         -2.0809987321       -1.3503275254        2.5812751771
 C          3.7810789891       -0.7622932976        2.4683854496
 C         -3.0294126947        0.5846591002        1.4920293008
 C          3.6043749907        1.6298096501        2.1616675946
 C         -1.9611128781       -2.3351633935       -2.0471975144
 C          0.4571991018        4.5843672423       -2.3559502517
 C          0.3590907127       -2.8992789107       -2.4367151959
 C          2.1341294462        3.0823304006       -3.2331772569
 C         -0.1669159315       -2.5496080784        1.5806439182
 C          1.9349637229       -2.0198541495        3.5482907293
 C         -2.0559181436        1.4453044092       -0.6108170534
 C          1.5740515525        2.8442634353        2.8710150972
 C         -2.8518372911       -0.1479876987       -2.7753750394
 C         -0.4505892022        4.2858106349       -0.0781514433
 C          1.8583459906       -1.3099012114       -3.6111249606
 C          3.0139717392        1.2247810922       -1.8544426326
 C         -1.1091854756       -1.4387310634        1.5841462161
 C          2.5355283061       -0.7710281445        3.1010571310
 C         -2.0423988596        0.5175860515        0.5097239231
 C          2.3550630938        1.6195895597        2.7807057022
 C         -1.7807992031       -1.1318390460       -2.7279636388
 C          0.4479512994        3.8782868972       -1.1549531781
 C          0.5409683963       -1.6931737258       -3.1170375315
 C          2.1337474670        2.3740179879       -2.0276482021
 C         -3.0146302404       -0.3366924410        2.5199224452
 C          4.2956769603        0.4385954842        2.0231792283
 C         -0.8910403425       -3.2054628608       -1.9370440734
 C          1.2952265796        4.1678866846       -3.3762855346
 C          0.6405776722       -4.6008296722        2.3638717137
 C          1.6572240710       -4.3302855643        3.5126215539
 C         -3.0904593781        2.9225445023       -2.0825217833
 C         -3.6526661546        1.9989224826       -3.2108978730
 C         -0.3821547313        4.0308117938        3.3107976030
 C         -1.3466166430        3.8702699709        2.1027948873
 C          4.1954608736       -1.3738784509       -3.5793287314
 C          4.6618217178       -0.2720353616       -2.5929435481
 Br        -4.3370734305       -0.2116579390        3.8852383582
 Br         6.0096898934        0.4611363255        1.1727195151
 Br        -1.1485638179       -4.8774587713       -1.0623139255
 Br         1.2788515597        5.1282728467       -5.0319704230
 N         -0.3063467940       -3.5328039246        2.3635252303
 N          2.3715131275       -3.1427778440        3.1666375877
 N         -3.0687810235        2.1570250346       -0.8765180116
 N          0.4163859282        2.8482432780        3.3730258592
 N         -2.6961928811        0.9575794297       -3.3712471650
 N         -0.5369380951        3.5792318351        0.9624093755
 N          2.9089542050       -1.8317410373       -3.1457225184
 N          3.8057455213        0.8575824233       -2.7654066243
 H          1.4426824098       -7.1910630735        1.8008568148
 H          0.3535972419       -8.0006466156        2.9303288342
 H          2.6102248971       -7.6287934002        3.9402769016
 H          1.3518908260       -6.7573921562        4.8220025404
 H         -3.1513332429        5.2880034691       -3.5305458237
 H         -4.7874971985        5.7716369383       -3.0711904096
 H         -5.6943068709        3.6818880961       -4.0385940739
 H         -4.7614314462        4.5605889972       -5.2550362770
 H         -1.5814599021        6.2905192106        4.4005757665
 H         -2.7270141399        5.4318151777        5.4344256095
 H         -3.7608002008        6.0543009674        3.2525904833
 H         -3.6983532414        4.3014772986        3.4614422179
 H          7.2597286940       -2.9613347257       -3.8533192543
 H          6.6167016533       -1.6930931582       -4.9018544846
 H          8.0529752067       -0.6993897545       -3.1447435199
 H          7.0700183413       -1.4593115143       -1.8905232222
 H         -0.7760592490       -6.0997203754        1.7927898110
 H         -0.6679456559       -5.8212425961        3.5350869499
 H          3.3200075860       -5.2963836444        4.4535135593
 H          3.2106311783       -5.5598295455        2.7108095557
 H         -4.9710272542        3.8007991753       -1.5717530665
 H         -3.5699484521        4.7814153159       -1.1380639286
 H         -2.7965401602        3.1049145767       -4.8284308769
 H         -4.2020943511        2.1348781771       -5.2753213804
 H         -1.7385306384        3.2592162194        4.7718279944
 H         -0.4929307365        4.3222798876        5.4320919383
 H         -1.7126471733        5.9827536267        1.8642624361
 H         -2.9694008827        4.9306081105        1.1813112734
 H          5.1399314426       -3.0014701014       -2.5668896325
 H          4.8280693981       -3.2966387734       -4.2798823343
 H          6.0959066374        0.6162711887       -3.9105745821
 H          6.4097825543        0.9017778907       -2.1939409669
 H         -0.3154483000       -0.5367841041       -0.1923552409
 H          0.8709026538        0.4366025720        3.7390868005
 H         -0.4261179818        0.0997019349       -3.8126484167
 H          1.2607808645        2.2440844848       -0.0604661039
 H         -2.0869063097       -2.0833261920        3.3717096322
 H          4.3125960606       -1.6918994974        2.3425657073
 H         -3.7857353802        1.3501687955        1.4216362097
 H          4.0228710049        2.5528204195        1.7884323381
 H         -2.9126995650       -2.5749214232       -1.5970314903
 H         -0.1848841796        5.4417979596       -2.4907818532
 H          1.1975301225       -3.5669093801       -2.3179110758
 H          2.7937032421        2.7639141922       -4.0241213289
 H          0.6342980722       -2.4990218332        0.8279481274
 H          1.0662053767       -1.9171530104        4.2130801751
 H         -1.1440556055        1.4651617436       -1.2227996012
 H          2.0376508009        3.7469238553        2.4457989981
 H         -3.7728618981       -0.4046610541       -2.2333423970
 H         -1.0222313111        5.2029028648       -0.2600979587
 H          1.8736061252       -0.5215830912       -4.3761595314
 H          2.9471289431        0.7115917688       -0.8824135689
 H          1.2121574394       -4.6437226863        1.4220435660
 H          1.0741768615       -4.2053102611        4.4404364356
 H         -2.0756536977        3.2210024683       -2.3940362085
 H         -4.6326514712        1.6211967627       -2.8710374078
 H          0.2328109910        4.9323426836        3.1273848436
 H         -1.9230363701        2.9533052123        2.2787773944
 H          4.1497630046       -0.9154193289       -4.5810198006
 H          4.6074893825       -0.6819048646       -1.5695061013
 C         -5.5162662654       -3.0210920910        0.5290485609
 C         -6.3541442424       -3.2289135467        1.7918548221
 O         -4.1321826495       -2.9744744011        0.8398883096
 C         -3.7378786966       -4.1560199895        1.5276146824
 C         -4.5792755914       -4.3549888995        2.7876571438
 O         -5.9580439371       -4.4115557107        2.4615541097
 H         -5.7587115604       -2.0672955985        0.0588033852
 H         -6.2332080849       -2.3673405387        2.4635989595
 H         -3.8663130906       -5.0217492993        0.8629512437
 H         -4.4057131085       -3.5271321372        3.4888771227
 H         -7.4070710728       -3.3558668313        1.5396516332
 H         -2.6830561172       -4.0327271111        1.7744433086
 H         -4.3382166598       -5.3041012119        3.2652993602
 H         -5.7049522500       -3.8454063126       -0.1744514524