142
-211.12656711
 C         -4.9801518707       -5.6564098471        5.9844199094
 C         -5.8641010690       -5.8029912141        4.7505111677
 C          3.8282339465        3.2079981830        7.0411181923
 C          2.9911848324        4.4372381259        6.7080367607
 C         -5.1571696479       -2.0711723205       -6.8319107604
 C         -3.9663702820       -2.8371497571       -7.3968252125
 C          5.4838733069        6.3048585763       -5.0774203779
 C          5.2433843676        5.4481425941       -6.3167084844
 C         -3.5351222949       -5.4021223924        5.5723695514
 C         -5.7679851994       -4.5568416348        3.8784620594
 C          3.1199391132        1.9484242517        6.5599981228
 C          2.7424696429        4.5080794603        5.2070437620
 C         -5.0803901607       -2.0280299433       -5.3110918532
 C         -2.6630573501       -2.1915476779       -6.9435806319
 C          4.2991106087        6.2096220081       -4.1224935107
 C          4.9823061357        3.9984271376       -5.9229212473
 C          0.5883900287       -1.5391784896        4.2225019352
 C         -3.8379442044       -1.6859660351       -0.5731226030
 C          1.8604528465        3.8288463768        0.4688153632
 C          1.0391303091       -0.0116127225       -4.5356128961
 C          0.6341904787       -3.8303266619        3.4833566218
 C         -3.9685578271       -0.5347848582        1.5364752042
 C          2.6131074864       -2.4588914116        3.2938402082
 C         -3.8419393738        0.7239858160       -0.5222771072
 C         -0.5391877462        3.8681001483        0.6873310383
 C          1.8003915189       -2.0095172854       -3.4295471248
 C          0.4898594764        4.2571564748       -1.4641820285
 C          3.2271219623       -0.0653599089       -3.5297880653
 C         -1.4490647900       -2.9195686608        4.4489035696
 C         -3.9717646111       -2.9975606521        1.5254462831
 C          2.6285177344       -0.1298619463        4.0917604640
 C         -3.7530908757       -0.4127962539       -2.7042724826
 C          0.8287932251        3.4911880905        2.7005589869
 C         -0.4415026773       -2.0012303708       -4.4453733870
 C          2.9433345100        4.2296242470       -1.7213673835
 C          2.4859208882        1.9816457405       -4.7029327441
 C         -0.0610513443       -2.7540230615        4.0404345549
 C         -3.9264902165       -1.7278755319        0.8131146408
 C          1.9243362806       -1.3836167111        3.8556733698
 C         -3.8056241757       -0.4660507545       -1.2490863626
 C          0.7211550645        3.7209331649        1.2655701851
 C          0.8104497972       -1.3262785797       -4.1329006519
 C          1.7538573637        4.1057526368       -0.8891574003
 C          2.2461583232        0.6175149218       -4.2534294418
 C          1.9540713224       -3.6638493547        3.1203520572
 C         -3.9150631385        0.6622974224        0.8571796365
 C         -0.6278463930        4.1241471898       -0.6687546979
 C          2.9813707450       -1.3591037921       -3.1240137927
 C         -3.4245592265       -4.1470517940        4.7026664889
 C         -4.3197698411       -4.2880123576        3.4530086166
 C          2.8540902504        1.9938124595        5.0478733801
 C          2.0340522562        3.2470631361        4.6920363536
 C         -3.7758822183       -1.3753040649       -4.8363192616
 C         -2.5668988758       -2.1374539914       -5.4137078881
 C          4.0470294588        4.7553359648       -3.7157901093
 C          3.7833592602        3.9034217647       -4.9774543193
 Br         2.9010885234       -5.1376321325        2.3452772493
 Br        -3.9330049233        2.2835239395        1.8577957746
 Br        -2.3505462894        4.2957020430       -1.4710398683
 Br         4.3017243868       -2.2785648736       -2.1027939730
 N         -2.0669323343       -4.0058511869        4.2716148234
 N         -4.2753111015       -3.0451984433        2.7484511656
 N          2.0946804063        0.8250096131        4.7208892990
 N         -3.7435799484       -1.4611852584       -3.4075581669
 N          1.9491526671        3.3653809347        3.2678961445
 N         -1.3705865232       -1.4275065678       -5.0776333351
 N          2.8770440034        4.6810544987       -2.8976018554
 N          3.6043498717        2.5479177910       -4.5560048295
 H         -5.3378710058       -4.8218666199        6.5916072015
 H         -5.0315634065       -6.5618658205        6.5915470788
 H         -6.9028209456       -5.9558420509        5.0491660709
 H         -5.5454945719       -6.6754841924        4.1757980511
 H          4.8036150399        3.2874383018        6.5560514572
 H          3.9904350833        3.1425468792        8.1184437666
 H          2.0362605399        4.3827686472        7.2351978186
 H          3.5059599680        5.3431573414        7.0328399309
 H         -5.1566636416       -1.0527013933       -7.2262569973
 H         -6.0900421149       -2.5504292582       -7.1340266108
 H         -4.0068085736       -2.8436524284       -8.4874314898
 H         -4.0008008354       -3.8726613990       -7.0511218647
 H          5.6330445720        7.3466099602       -5.3669670099
 H          6.3882088368        5.9630556447       -4.5689100252
 H          6.1114078921        5.4949124122       -6.9766322158
 H          4.3816569326        5.8355631047       -6.8650148405
 H         -2.9030162194       -5.2733863462        6.4534120576
 H         -3.1497435763       -6.2496014140        5.0030090523
 H         -6.3794763924       -4.6706685568        2.9805042166
 H         -6.1321045299       -3.6848474898        4.4246885920
 H          2.1613435594        1.8385556652        7.0704587099
 H          3.7207169776        1.0628829957        6.7795344505
 H          3.6897523453        4.6077200047        4.6737393266
 H          2.1260373468        5.3756177431        4.9616977030
 H         -5.1242460283       -3.0395085827       -4.9030391285
 H         -5.9206255949       -1.4634413294       -4.9011388531
 H         -2.5956031097       -1.1712237345       -7.3250910016
 H         -1.8060175766       -2.7505174665       -7.3257293174
 H          3.3963131858        6.5978978341       -4.5971777188
 H          4.4863113138        6.7985486496       -3.2219135572
 H          5.8546716250        3.5783929836       -5.4195693894
 H          4.7803861234        3.3924856914       -6.8087180037
 H          0.0758469529       -0.6945508019        4.6543027803
 H         -3.8068731606       -2.5935148684       -1.1558819899
 H          2.8243441186        3.7088641328        0.9373872922
 H          0.2600988717        0.4982502888       -5.0805986766
 H          0.1237707034       -4.7711255189        3.3552133755
 H         -4.0378571868       -0.5801665430        2.6107258606
 H          3.6486871649       -2.3561389777        3.0039563825
 H         -3.8135848588        1.6765780816       -1.0298313465
 H         -1.4309699162        3.7886284420        1.2901334417
 H          1.6444387245       -3.0332838984       -3.1246438878
 H          0.4190890775        4.4765105311       -2.5170958834
 H          4.1541526146        0.4368234270       -3.3046532653
 H         -1.9136799944       -2.0478618721        4.9297167433
 H         -3.7378362461       -3.8950098007        0.9349437245
 H          3.6633071796       -0.0824245867        3.7192649669
 H         -3.7468590680        0.5936363105       -3.1470633997
 H         -0.1200379110        3.4651372818        3.2553326632
 H         -0.5226125155       -3.0446367985       -4.1043348177
 H          3.8888371464        3.9075010026       -1.2625446620
 H          1.6322715548        2.4830367607       -5.1815936420
 H         -3.7697877892       -3.2603292148        5.2628644784
 H         -3.9438996425       -5.1260297721        2.8402110846
 H          3.8122374004        2.0312742708        4.5005828693
 H          1.0379369790        3.1546805291        5.1586260026
 H         -3.7256486704       -0.3293289304       -5.1861090441
 H         -2.5698174906       -3.1602664969       -4.9965122496
 H          4.9339857200        4.3475712238       -3.1995646329
 H          2.8777436844        4.2988630833       -5.4710748669
 C          1.0310021279       -2.1280273196       -0.0041950933
 C         -0.4371345712       -2.1649929594        0.4138232500
 O          1.3356348778       -0.9018905446       -0.6491555344
 C          1.0424891956        0.1865162459        0.2060390061
 C         -0.4255924932        0.1536768627        0.6272013224
 O         -0.7405111022       -1.0714657868        1.2633283786
 H          1.2523833995       -2.9192584860       -0.7185716247
 H         -1.0782456246       -2.1200541715       -0.4783679167
 H          1.6807425437        0.1378946348        1.0996992678
 H         -1.0608441061        0.2783040368       -0.2619797044
 H         -0.6580441354       -3.0634535729        0.9893749974
 H          1.2642073985        1.0926710813       -0.3575930133
 H         -0.6348086161        0.9392954839        1.3523728751
 H          1.6696512669       -2.2371806020        0.8814852729