142
-211.12680330
 C         -1.1822197801       -8.2991146659        2.4297177760
 C         -1.9097489945       -8.3500548814        1.0897452171
 C         -3.5346458780        3.8470475265        5.3991764554
 C         -3.8938378177        4.5051177997        4.0713310166
 C         -6.1525284236       -1.0740323310       -7.5895478526
 C         -4.8949142898       -0.8735998718       -8.4292150983
 C          6.9144764369       -1.9026894953       -3.1216052590
 C          6.8395308381       -1.3461207669       -4.5400374459
 C         -0.2533221708       -7.0914385383        2.4885785532
 C         -2.6888276089       -7.0608879568        0.8540586841
 C         -2.8754788483        2.4946906028        5.1565781062
 C         -2.6489539043        4.6694629202        3.2077028073
 C         -5.7910122638       -1.5989480795       -6.2047179572
 C         -3.9294327850        0.0742700636       -7.7267557929
 C          6.3855850470       -0.8823824073       -2.1205297867
 C          5.4063786038       -0.9560542688       -4.8840900569
 C         -0.1373709250       -1.2008705344        3.2435290479
 C         -3.5916448987       -2.2552473698       -1.7257108591
 C          1.5034365292        1.6519098327        0.1194383391
 C          0.7210337995        0.8554946454       -4.6089398350
 C          1.6574808916       -2.4624004194        2.2539352470
 C         -3.7277012494       -2.0874806318        0.6731764310
 C          1.9933661368       -0.1477418525        2.8622896174
 C         -4.7143686955       -0.3773405078       -0.7163941204
 C          1.8173033005        3.8190843891        1.1248278561
 C         -1.1420997273        2.3209988459       -4.1810217142
 C          3.6248011976        2.7750827319       -0.0891605144
 C          1.0775193658        2.9416697460       -3.4584870148
 C         -0.5065980727       -3.5777140090        2.7202296355
 C         -2.5382013338       -4.0060207326       -0.3288107879
 C          0.1445801352        1.1931452089        3.7971104409
 C         -4.6659400763       -0.5446681650       -3.1701455752
 C         -0.3342369973        2.6444029518        1.4379816359
 C         -1.5238644407        0.1946424202       -5.3904926312
 C          3.3259344951        0.5628853291       -1.1454226511
 C          3.0080943086        1.4738972787       -3.8733284176
 C          0.3455238824       -2.3974826529        2.7280750106
 C         -3.2987433605       -2.7697043926       -0.4678325963
 C          0.6749002812       -0.0715439814        3.3064648945
 C         -4.3129219778       -1.0697040756       -1.8584373267
 C          1.0043766284        2.7135692962        0.8693321294
 C         -0.6365209891        1.1348033314       -4.7188316163
 C          2.8114469310        1.6729323898       -0.3572085114
 C          1.5853510386        1.7585854527       -3.9934621661
 C          2.4553919742       -1.3413498844        2.3400187047
 C         -4.4157418113       -0.9006742056        0.5288316016
 C          3.1105161906        3.8303284551        0.6391647425
 C         -0.2794315218        3.1943275672       -3.5508318177
 C         -1.0310674736       -5.7980250009        2.2536781096
 C         -1.7513317645       -5.8482500483        0.8877928359
 C         -1.6175038507        2.6375309252        4.3034884834
 C         -1.9780625432        3.3235503952        2.9455725271
 C         -4.8318902653       -0.6396836963       -5.4946315173
 C         -3.5545490769       -0.4606267370       -6.3408372464
 C          4.9453488703       -0.4925256491       -2.4453746347
 C          4.8660947072        0.0742544249       -3.8960382249
 Br         4.2596586338       -1.4433778040        1.7310102303
 Br        -4.9710959642        0.0509920138        2.0896499959
 Br         4.2233349224        5.3470827645        0.9901629798
 Br        -0.9758611674        4.8016480315       -2.7759174379
 N         -0.1266907955       -4.6850119759        2.2449141363
 N         -2.5171572739       -4.6464430165        0.7579113705
 N         -1.0967476277        1.3494884024        3.9860687613
 N         -4.4572427098       -1.1960956271       -4.2305836055
 N         -0.7473461660        3.5157313205        2.2559610518
 N         -2.7156613577        0.4910155516       -5.6795265550
 N          4.5140253360        0.5488973278       -1.5749013644
 N          3.4883581082        0.3405132954       -4.1652468818
 H         -1.9136094042       -8.2330497027        3.2383637795
 H         -0.6025202274       -9.2122102587        2.5745425643
 H         -2.5981909985       -9.1967920589        1.0700828972
 H         -1.1830111008       -8.4869836214        0.2857556192
 H         -2.8497719867        4.4930186523        5.9534541298
 H         -4.4328493723        3.7089798828        6.0030063125
 H         -4.6221469475        3.8843030390        3.5453776094
 H         -4.3454034930        5.4828734934        4.2469406021
 H         -6.6795538954       -0.1223863606       -7.4908666298
 H         -6.8224256577       -1.7807332687       -8.0824383912
 H         -5.1588455871       -0.4637549212       -9.4056660615
 H         -4.4061797147       -1.8374167914       -8.5886397646
 H          7.9464836981       -2.1539484663       -2.8720764131
 H          6.3197483636       -2.8164223310       -3.0559728578
 H          7.1952704536       -2.0909159599       -5.2541126845
 H          7.4836623318       -0.4676351619       -4.6203127501
 H          0.2358737782       -7.0367277249        3.4630093085
 H          0.5231375732       -7.1718497564        1.7257514646
 H         -3.1910141026       -7.0887743608       -0.1158207081
 H         -3.4508465415       -6.9328204981        1.6250636597
 H         -3.5659201894        1.8269557472        4.6388294313
 H         -2.6000681080        2.0290519913        6.1048867088
 H         -1.9278453063        5.3223476573        3.7022279084
 H         -2.9068469000        5.1196352316        2.2469904218
 H         -5.3092386239       -2.5750953938       -6.2825720059
 H         -6.6888508135       -1.7143488472       -5.5937724324
 H         -4.3847342135        1.0587807002       -7.6061579227
 H         -3.0167682552        0.1950460242       -8.3144015251
 H          6.9987633431        0.0197169255       -2.1385497770
 H          6.4112373866       -1.2879969120       -1.1073853019
 H          4.7583484290       -1.8335440885       -4.8549942081
 H          5.3570422813       -0.5335309180       -5.8896979446
 H         -1.1470998459       -1.1205365397        3.6147301753
 H         -3.2824925879       -2.7683147868       -2.6226884633
 H          0.8720382067        0.7982223343       -0.0849363014
 H          1.1364750896       -0.0557738258       -5.0097235829
 H          2.0252536753       -3.3914308333        1.8485322110
 H         -3.5065335651       -2.5019543053        1.6428697281
 H          2.6411233193        0.7137872568        2.9231820326
 H         -5.2594385283        0.5506483059       -0.8038099980
 H          1.4161959206        4.6376352127        1.7003449476
 H         -2.1958838982        2.5288320893       -4.2703802943
 H          4.6384749412        2.7743134667       -0.4560721482
 H          1.7349446652        3.6448656600       -2.9700854939
 H         -1.4997543197       -3.4463443460        3.1722146522
 H         -1.9912226734       -4.3366316828       -1.2235374284
 H          0.8781701305        1.9933129087        3.9709623776
 H         -5.1430614061        0.4464014846       -3.1766218983
 H         -0.9429942603        1.7789497992        1.1349182687
 H         -1.0839161897       -0.7826031060       -5.6368275954
 H          2.6165682939       -0.2552566224       -1.3428201759
 H          3.6320613642        2.3003572145       -3.5054875884
 H         -1.8118639124       -5.6716642065        3.0226882915
 H         -0.9995421367       -5.9432089083        0.0852303138
 H         -0.8697769622        3.2781961422        4.8007995278
 H         -2.6586569275        2.6413014553        2.4095104654
 H         -5.3049848973        0.3514519999       -5.3777285268
 H         -3.0588678037       -1.4426120968       -6.4393651409
 H          4.2816748932       -1.3731707154       -2.3967834011
 H          5.4739261671        0.9939214582       -3.9159684836
 C          3.3028937746       -3.5943817483        5.1605304060
 C          2.4585967335       -4.8605184171        5.0173169686
 O          2.4714369080       -2.4462634280        5.2447381375
 C          1.5689271067       -2.5658324783        6.3314023193
 C          0.7287108234       -3.8369982798        6.1982051139
 O          1.5589805374       -4.9807203686        6.1085495959
 H          3.9414048944       -3.4499551722        4.2896513038
 H          1.8905468683       -4.8253057808        4.0773663258
 H          2.1333959950       -2.5946302510        7.2744910122
 H          0.1037951358       -3.7673895020        5.2968586238
 H          3.0871858530       -5.7506491810        5.0427184260
 H          0.9373880888       -1.6777018795        6.3021765609
 H          0.1019671080       -3.9821795810        7.0782762354
 H          3.9214292180       -3.6639583364        6.0666118199