142
-211.12956099
 C          2.8000064538       -6.4893832806        3.4308430150
 C          1.6776900518       -6.8575039948        2.4658050597
 C         -2.0916995252        5.0614322651        6.5339538900
 C         -3.2939742188        4.7257477133        5.6572306037
 C         -5.6828762947        4.6701457723       -1.8251048273
 C         -6.4211440068        3.8172011962       -2.8518893956
 C          5.3821661819       -1.9305052359       -3.5866770629
 C          4.6079342546       -2.7088036258       -4.6456715756
 C          3.2756152534       -5.0644485056        3.1721177924
 C          0.5198477460       -5.8756363663        2.5981913480
 C         -0.9803390010        4.0380302778        6.3296336329
 C         -2.8846028070        4.6684282754        4.1896799253
 C         -5.3134846776        3.8348175385       -0.6043322434
 C         -5.5707625897        2.6199480853       -3.2615300087
 C          4.5908971058       -0.7055599535       -3.1454385563
 C          3.2422770618       -3.1198979061       -4.1079791868
 C          1.8753458123        0.6842226593        3.7763559115
 C         -1.8081500390       -0.7774338048        0.9764703113
 C          0.5231485139        1.4390089985        0.4466361698
 C         -2.1752342611       -1.1323527460       -2.6602975513
 C          3.5290284755       -0.1750042789        2.2502400718
 C         -2.2625886304       -1.7836182982        3.1154820401
 C          3.1221158849        2.2026797360        2.3828001529
 C         -3.5914959503        0.0845296324        2.3463021525
 C         -0.3793634330        3.6046086248       -0.0957596672
 C         -3.4618261823       -2.6054237143       -1.2538359518
 C          0.9841091804        2.4184839687       -1.7031511676
 C         -1.2285256181       -3.2249751100       -1.9347420519
 C          2.1894317410       -1.7549354016        3.6107473049
 C         -0.4303831888       -2.6855000748        1.7097928028
 C          1.3211596550        3.0965256785        3.8058198778
 C         -3.1276103044        1.1196012922        0.1399243429
 C         -0.8512372683        2.5965052457        2.1222662423
 C         -4.3908182392       -0.3998412193       -1.8320126713
 C          1.9288750350        0.1935097814       -1.1485722241
 C          0.1416836178       -1.6808755101       -3.3039878152
 C          2.5495777485       -0.3976002921        3.2218387104
 C         -1.5153250971       -1.7406920957        1.9370647300
 C          2.1412305428        1.9845200318        3.3493993721
 C         -2.8393352821        0.1375921368        1.1734400919
 C         -0.2371100686        2.5494873144        0.8045872036
 C         -3.3458494149       -1.4050281672       -1.9537420689
 C          1.1389992993        1.3661025478       -0.7990686416
 C         -1.1100241752       -2.0253211284       -2.6416024026
 C          3.8039523431        1.1191587084        1.8580200637
 C         -3.2837451642       -0.8707774198        3.2974636088
 C          0.2279577827        3.5147758614       -1.3348171042
 C         -2.4039287000       -3.4969100825       -1.2650373362
 C          2.1246981165       -4.0682475597        3.3079568326
 C          0.9825896818       -4.4422909989        2.3286505963
 C         -0.5469909962        3.9854063140        4.8669433591
 C         -1.7817083493        3.6378173564        3.9711760187
 C         -4.4506160787        2.6414760343       -1.0014309832
 C         -5.2113509559        1.7640213574       -2.0498699697
 C          3.2237756321       -1.1101186401       -2.5910123110
 C          2.4374634810       -1.8968900065       -3.6707191125
 Br         5.1373170032        1.4256758859        0.5247442407
 Br        -4.2962736118       -0.9207978363        4.9171188873
 Br         0.0041724224        4.9480319092       -2.5782390007
 Br        -2.5654223868       -5.1331431081       -0.2921188703
 N          2.5824163379       -2.7590397970        2.9537707128
 N         -0.1049680625       -3.5486283528        2.5697831287
 N          0.3952960945        2.9393920192        4.6545426577
 N         -4.1838245897        1.8157351329        0.1327144844
 N         -1.3407560707        3.6546896153        2.6129074147
 N         -4.3113550556        0.7220951473       -2.4128094127
 N          2.4789205726        0.0669854456       -2.2763942099
 N          1.2052936107       -2.3232941012       -3.0798118387
 H          2.4381809834       -6.5710263110        4.4581994708
 H          3.6375089003       -7.1789883835        3.3126003657
 H          1.3198788824       -7.8670718670        2.6736190512
 H          2.0555969079       -6.8381019623        1.4412377212
 H         -1.7203627531        6.0564723176        6.2780987608
 H         -2.3865808234        5.0714275084        7.5844637025
 H         -3.7043417191        3.7588636553        5.9571532811
 H         -4.0733977317        5.4780368235        5.7881722992
 H         -4.7740136334        5.0758953373       -2.2751491039
 H         -6.3093680602        5.5083794130       -1.5161238455
 H         -6.6552492529        4.4144849216       -3.7345418429
 H         -7.3622630499        3.4643889830       -2.4237640412
 H          6.3473135855       -1.6122186040       -3.9839915160
 H          5.5699124082       -2.5724749888       -2.7227143626
 H          5.1658147718       -3.6012693746       -4.9354541842
 H          4.4717483249       -2.0861664163       -5.5321114529
 H          4.0605229551       -4.7892571191        3.8796311887
 H          3.6861494124       -4.9804791242        2.1644301790
 H         -0.2757182934       -6.1238377658        1.8931083376
 H          0.1014114635       -5.9172100089        3.6049833946
 H         -1.3214746016        3.0444659662        6.6249144972
 H         -0.1114584158        4.2918846124        6.9403584557
 H         -2.5199138770        5.6418783010        3.8578858188
 H         -3.7390588321        4.3974727840        3.5669304361
 H         -6.2130100879        3.4630651831       -0.1110008276
 H         -4.7582992890        4.4385509895        0.1158011187
 H         -4.6462233450        2.9558125500       -3.7338833313
 H         -6.1095593089        1.9975087423       -3.9789163593
 H          4.4320715447       -0.0351044552       -3.9908307931
 H          5.1325858586       -0.1552567924       -2.3735634542
 H          3.3552221614       -3.7839286325       -3.2488110780
 H          2.6759901025       -3.6524442132       -4.8746334658
 H          1.1109872771        0.5371789621        4.5236053255
 H         -1.2353265334       -0.7418372172        0.0606722718
 H          0.6418890234        0.6284542659        1.1516148375
 H         -2.1049937531       -0.1970526803       -3.1936968897
 H          4.0468548578       -1.0203419869        1.8262540119
 H         -2.0277755205       -2.5320079146        3.8550846307
 H          3.3380413660        3.2037785918        2.0410795340
 H         -4.3915833002        0.7932449859        2.4875554911
 H         -0.9646081637        4.4631606725        0.1918873183
 H         -4.3617218190       -2.8297576096       -0.7011519212
 H          1.4622443840        2.3526510842       -2.6671556262
 H         -0.3967174312       -3.9109247606       -1.9263378669
 H          1.5295079244       -1.8426757334        4.4848638206
 H          0.0821958442       -2.5939487714        0.7389253900
 H          1.5185927305        4.0668940640        3.3269514086
 H         -2.3628880601        1.2077057697       -0.6458442143
 H         -0.8503080343        1.6429589336        2.6708258282
 H         -5.2236923348       -0.6531681090       -1.1595628406
 H          2.0135787124       -0.5714195317       -0.3599677091
 H          0.1061930753       -0.8124367203       -3.9758633354
 H          1.7052538752       -4.0920508916        4.3280216951
 H          1.3710327019       -4.3481133494        1.2990561130
 H         -0.1636269601        4.9657422737        4.5342432951
 H         -2.1181528953        2.6330580492        4.2754417443
 H         -3.5191683039        2.9753327099       -1.4873862925
 H         -6.1205537084        1.3765927547       -1.5578890498
 H          3.3422387680       -1.7662563187       -1.7101472898
 H          2.2712038604       -1.2168220905       -4.5226806030
 C          4.6087137439       -1.9846876679       -8.6498019815
 C          6.1213817409       -1.9687436229       -8.8775146206
 O          4.2393864715       -1.0077488379       -7.6900771953
 C          4.6680642284        0.2804632520       -8.0998888200
 C          6.1807869318        0.2957994849       -8.3263598508
 O          6.5501152979       -0.6804294937       -9.2858312047
 H          4.2846275823       -2.9454086389       -8.2497650762
 H          6.6374386239       -2.2501420903       -7.9484085514
 H          4.1537522591        0.5587644077       -9.0308912703
 H          6.6979935117        0.0931544863       -7.3774320385
 H          6.4011491753       -2.6518135760       -9.6795700581
 H          4.3863476173        0.9673899905       -7.3019205357
 H          6.5042973355        1.2562478818       -8.7276175557
 H          4.0917134430       -1.7800321600       -9.5981925071