142
-211.12669069
 C          2.2333742514       -6.3680047351        3.2689067030
 C          1.2172559752       -6.4849013973        2.1374288961
 C         -1.0945073443        5.6615772880        6.5867201488
 C         -2.2021412072        5.5790952782        5.5411265592
 C         -3.4867066505        6.3034373187       -2.2806678186
 C         -4.2010928283        5.6311065564       -3.4488109692
 C          6.5392368798       -1.8815782666       -3.0076551235
 C          5.8176132414       -2.4498584880       -4.2253425606
 C          2.9689286612       -5.0354889334        3.1855260569
 C          0.2298256558       -5.3253176660        2.1881233073
 C         -0.1426821700        4.4784738673        6.4504058051
 C         -1.6080169400        5.5310366477        4.1378354013
 C         -3.4350343995        5.3679295309       -1.0778707917
 C         -3.5076183259        4.3246015513       -3.8181421002
 C          5.8835608785       -0.5807544035       -2.5602817862
 C          4.3430285353       -2.6744967098       -3.9110322949
 C          2.4579904869        0.8275824363        4.0392250689
 C         -0.9723068245        0.1701016098        0.6477619374
 C          1.7267827094        1.9790688555        0.6279147218
 C         -0.8661963591        0.0525817003       -3.0191318551
 C          4.1503396434       -0.2206048475        2.6831169032
 C         -1.8837778125       -0.8411244554        2.6328930670
 C          4.1216311458        2.1812062006        2.9428877915
 C         -2.7692814862        1.2589359183        1.8245946079
 C          1.2519393415        4.2888041770        0.1388599679
 C         -2.5524883772       -1.2644787515       -1.9131686876
 C          2.6254819877        2.9856807110       -1.3654133117
 C         -0.3650912240       -2.2011027887       -2.3328320284
 C          2.3895370180       -1.6164356132        3.7288308905
 C         -0.0426956301       -1.9775948367        1.4223092466
 C          2.3048751050        3.2937135632        4.1802508902
 C         -1.8377689923        2.2973327049       -0.2268721541
 C          0.3310395609        3.2555203439        2.1974671896
 C         -3.0371356179        1.0921008417       -2.4466370186
 C          3.1336966673        0.6113508240       -0.8644223917
 C          1.4072898461       -0.8233611104       -3.3846351269
 C          3.0189061346       -0.3228850630        3.4969182076
 C         -0.9795417601       -0.8721668783        1.5697343374
 C          2.9903453083        2.0837011533        3.7519860092
 C         -1.8596976339        1.2365932081        0.7680549493
 C          1.1049254288        3.1777126160        0.9682814864
 C         -2.1544373889       -0.0635638919       -2.4990252379
 C          2.4906371112        1.8748836045       -0.5306162959
 C          0.0362441563       -1.0004080295       -2.9244715596
 C          4.6858365262        1.0260633791        2.4313401507
 C         -2.7583749801        0.2231480775        2.7405886729
 C          2.0029542145        4.1686895937       -1.0159350874
 C         -1.6529240440       -2.3138874967       -1.8499156154
 C          1.9897529343       -3.8635183978        3.2418640227
 C          0.9563327426       -3.9820891002        2.0924647731
 C          0.4736849833        4.4293559831        5.0547517673
 C         -0.6655180655        4.3414968788        3.9861921079
 C         -2.7278497917        4.0641756768       -1.4331677750
 C         -3.4645921350        3.3711881553       -2.6267746901
 C          4.4052137545       -0.7971962527       -2.2300181323
 C          3.6726671358       -1.3745977582       -3.4681118138
 Br         6.2286144909        1.1694600966        1.3135589850
 Br        -3.9845426496        0.2727333885        4.2051866228
 Br         2.1753547275        5.6839982833       -2.1670472226
 Br        -2.2025493741       -3.9522257296       -1.0354513565
 N          2.7023166900       -2.6364446121        3.0535592998
 N          0.0075027050       -2.9265750914        2.2513986811
 N          1.2559459606        3.2515860495        4.8873932381
 N         -2.7587683416        3.1583287089       -0.3295946084
 N         -0.0452352194        4.3536766196        2.6998847888
 N         -2.7000535753        2.2103517202       -2.9345120555
 N          3.8079805173        0.4624732441       -1.9197211691
 N          2.3203139056       -1.6412130222       -3.0817229539
 H          1.7184123970       -6.4395397684        4.2294990410
 H          2.9544136304       -7.1851505817        3.2112943374
 H          0.6720513574       -7.4265274447        2.2181943561
 H          1.7372763740       -6.4779459090        1.1769835657
 H         -0.5377610480        6.5923127690        6.4554399059
 H         -1.5263216841        5.6655676574        7.5887997157
 H         -2.7988216759        4.6804228603        5.7131135372
 H         -2.8621979277        6.4436477207        5.6273629255
 H         -2.4694168323        6.5666817007       -2.5790935091
 H         -4.0056847646        7.2227134228       -2.0047214597
 H         -4.2075525530        6.2950573843       -4.3146957047
 H         -5.2380717487        5.4262442981       -3.1728391116
 H          7.5872054132       -1.6936205712       -3.2461304699
 H          6.5042072687       -2.6059346250       -2.1909666418
 H          6.2736175352       -3.3952641870       -4.5240013609
 H          5.9089572955       -1.7523843210       -5.0609504699
 H          3.6776359773       -4.9379760141        4.0105052779
 H          3.5291156186       -4.9712164827        2.2511319021
 H         -0.4851607497       -5.3947473549        1.3661859865
 H         -0.3308978309       -5.3460735910        3.1238522117
 H         -0.6747234467        3.5421070658        6.6260866461
 H          0.6632470007        4.5514297914        7.1835882278
 H         -1.0490543549        6.4447821516        3.9296566260
 H         -2.3998646788        5.4421938905        3.3918171678
 H         -4.4438689733        5.1329317204       -0.7347545137
 H         -2.8985968101        5.8386612236       -0.2520012041
 H         -2.4839094321        4.5178752289       -4.1427851618
 H         -4.0344446230        3.8321642977       -4.6381166679
 H          5.9522973689        0.1690463293       -3.3499104769
 H          6.3845429307       -0.1839342718       -1.6753141614
 H          4.2350166863       -3.4079229916       -3.1101280922
 H          3.8187960832       -3.0556635029       -4.7898153995
 H          1.5810639676        0.7745580757        4.6656523718
 H         -0.2766279158        0.1497983396       -0.1790936260
 H          1.6207048927        1.1230762283        1.2791482162
 H         -0.5779856096        0.9911851957       -3.4665337537
 H          4.5785672031       -1.1185488866        2.2673908619
 H         -1.8814397660       -1.6517654077        3.3435801315
 H          4.5443534424        3.1470229565        2.7103084584
 H         -3.4561742592        2.0858749941        1.9065917586
 H          0.7718455475        5.2142330555        0.4134670974
 H         -3.5464134766       -1.3692291051       -1.5048084600
 H          3.2169821498        2.8955930522       -2.2622186350
 H          0.3415151013       -3.0126057470       -2.2643100863
 H          1.6060410696       -1.6356998890        4.4989172550
 H          0.6137274007       -1.9275955455        0.5389069805
 H          2.7215909826        4.2401779630        3.8054882925
 H         -0.9646458201        2.2910955532       -0.8960214933
 H          0.1049487446        2.2875096715        2.6686081507
 H         -3.9860399448        0.9486271542       -1.9092283089
 H          2.9923373662       -0.1999494136       -0.1325410292
 H          1.5989782098        0.0820521786       -3.9769070408
 H          1.4286167673       -3.8681727811        4.1916853572
 H          1.5006464324       -3.9040102440        1.1346311340
 H          1.0514925908        5.3467478331        4.8467510921
 H         -1.1973831589        3.3937376691        4.1708002262
 H         -1.6960548567        4.2571148902       -1.7699924761
 H         -4.4840544232        3.1208636569       -2.2851382657
 H          4.2956623044       -1.5187390503       -1.4010426213
 H          3.7264998232       -0.6154484803       -4.2667657360
 C         -6.8537188078      -11.1288307089       -8.3799025587
 C         -6.3076040768       -9.7866520114       -7.8887545582
 O         -7.8473930867      -11.6169156896       -7.4941886289
 C         -8.8964536013      -10.6739146646       -7.3515147985
 C         -8.3502803218       -9.3317132919       -6.8605012484
 O         -7.3569640666       -8.8436278964       -7.7468943985
 H         -6.0683479755      -11.8844148015       -8.4032306820
 H         -5.8053923937       -9.9257188173       -6.9204709542
 H         -9.3991632373      -10.5343778889       -8.3195370362
 H         -7.9183423290       -9.4551284498       -5.8568409639
 H         -5.6109199714       -9.3611534803       -8.6111837976
 H         -9.5927943385      -11.0994116225       -6.6288034731
 H         -9.1357042368       -8.5761580982       -6.8368633202
 H         -7.2851543511      -11.0050621267       -9.3838011444