142
-211.12657731
 C          1.0231094939       -6.5712506199        2.9456483070
 C          0.1520624084       -6.5783360126        1.6936469280
 C         -1.7326954440        5.5837565296        6.1105474595
 C         -2.6556534875        5.6501040627        4.8980909116
 C         -2.7956385765        6.7882566717       -2.6570935864
 C         -3.3559679846        6.2337276410       -3.9628277778
 C          6.8593817969       -1.8822730941       -2.7880735936
 C          6.2559189945       -2.3290573761       -4.1156529076
 C          1.8794551338       -5.3109604476        2.9876551620
 C         -0.7266552803       -5.3341018966        1.6508907169
 C         -0.8663691441        4.3308938888        6.0516723374
 C         -1.8427482362        5.6261125427        3.6086774404
 C         -2.9801250307        5.7809636643       -1.5277437801
 C         -2.6811628490        4.9124369940       -4.3126857642
 C          6.2262310572       -0.5738687479       -2.3307307143
 C          4.7453144481       -2.4848356533       -3.9848740789
 C          1.7615096704        0.5679063592        3.9111944918
 C         -1.1920049896        0.3203074037        0.2167821234
 C          1.7769875886        2.0451706456        0.4269736079
 C         -0.3945372241        0.4702002113       -3.4805619481
 C          3.5372564824       -0.6054311250        2.7845131213
 C         -2.4863656537       -0.6983066797        1.9725474847
 C          3.6882170464        1.7822663014        3.1277323727
 C         -3.0596623236        1.5078583772        1.1671341198
 C          1.5433438962        4.4137150184        0.0567539797
 C         -2.2650787820       -0.8329382749       -2.7028853418
 C          3.0598709284        3.1150920619       -1.3065200191
 C         -0.0823557923       -1.8490332692       -2.9122627122
 C          1.5254189165       -1.8531335552        3.5255095530
 C         -0.5831606898       -1.9424247455        0.9886029537
 C          1.8123748721        3.0308975796        4.1303883234
 C         -1.7375814298        2.5583292623       -0.6478916090
 C          0.2281842888        3.3197262448        1.8512185435
 C         -2.5770843068        1.5772717970       -3.1216102377
 C          3.3266220962        0.6817697963       -0.9240555611
 C          1.8649979296       -0.4987135863       -3.6430756478
 C          2.2922546363       -0.6187800059        3.4191942604
 C         -1.4321084647       -0.7609698418        1.0593789369
 C          2.4426885913        1.7740290628        3.7541548496
 C         -1.9992664502        1.4543429603        0.2632198970
 C          1.1885254223        3.2628955947        0.7596627303
 C         -1.7434885853        0.3842368224       -3.1391181887
 C          2.7162090286        1.9630452445       -0.5966272713
 C          0.4424719556       -0.6325530771       -3.3569209068
 C          4.2150688627        0.5905792553        2.6613623934
 C         -3.2765256209        0.4343400370        2.0111176880
 C          2.4652713524        4.3156278696       -0.9690342292
 C         -1.4256236395       -1.9288407769       -2.6051311915
 C          1.0099105166       -4.0549603189        2.9546435828
 C          0.1201583024       -4.0604597460        1.6841626195
 C         -0.0319418578        4.2985881205        4.7736516879
 C         -0.9781636216        4.3718931093        3.5299104277
 C         -2.3016212818        4.4554468285       -1.8587862111
 C         -2.8726122746        3.8856231641       -3.1992687466
 C          4.7099752753       -0.7169532295       -2.1867441459
 C          4.0948160659       -1.1777059502       -3.5339684958
 Br         5.9171821729        0.6121722654        1.7923174481
 Br        -4.7054138929        0.5286350426        3.2764844042
 Br         2.9236763462        5.8888814836       -1.9521812204
 Br        -2.1454246235       -3.5915485451       -1.9953952161
 N          1.8472783285       -2.8956407617        2.8897644483
 N         -0.7464717971       -2.9280957474        1.7583373539
 N          0.6628907761        3.0616189097        4.6593211454
 N         -2.5695969289        3.4915422887       -0.8402218162
 N         -0.1493268821        4.4107792042        2.3681415445
 N         -2.1231665580        2.7063223490       -3.4698195999
 N          4.1511459637        0.5583960379       -1.8704345796
 N          2.6961985990       -1.3917334902       -3.3174243219
 H          0.3865685476       -6.6081249853        3.8325537268
 H          1.6694307148       -7.4504849613        2.9577997185
 H         -0.4806863888       -7.4671019949        1.6814446116
 H          0.7876991141       -6.6049615686        0.8059085124
 H         -1.0918213680        6.4682509672        6.1301396029
 H         -2.3219818863        5.5737460976        7.0288252521
 H         -3.3381111440        4.7973067830        4.9129814051
 H         -3.2542608141        6.5616731136        4.9333815585
 H         -1.7320510779        7.0045323506       -2.7803081467
 H         -3.3014459533        7.7199848670       -2.3990075114
 H         -3.1952211187        6.9480169299       -4.7718975651
 H         -4.4320992380        6.0761805180       -3.8603172106
 H          7.9366317502       -1.7444118070       -2.8927928407
 H          6.6901376006       -2.6518877976       -2.0318511916
 H          6.6936762658       -3.2794020096       -4.4257014682
 H          6.4798197294       -1.5872745625       -4.8855453718
 H          2.4858994304       -5.2911147151        3.8954794511
 H          2.5548641561       -5.2846262892        2.1308728183
 H         -1.3324997288       -5.3246555532        0.7427891337
 H         -1.4026222860       -5.3184581863        2.5072545178
 H         -1.4917678273        3.4369956784        6.0773721886
 H         -0.1902069526        4.2943708511        6.9083186021
 H         -1.1908031373        6.4994368051        3.5535718305
 H         -2.5051983096        5.6432759469        2.7414549156
 H         -4.0411037480        5.5924172130       -1.3559523590
 H         -2.5506219376        6.1662273512       -0.6012495237
 H         -1.6107182467        5.0623989301       -4.4625309217
 H         -3.0972324217        4.5043471491       -5.2361306075
 H          6.4284682845        0.2176719410       -3.0539905976
 H          6.6385703839       -0.2648772677       -1.3682743937
 H          4.5075745036       -3.2577568140       -3.2520603438
 H          4.3074559819       -2.7804563030       -4.9405115482
 H          0.7991632144        0.5845060160        4.3988125460
 H         -0.3768609325        0.2789445908       -0.4918002922
 H          1.5059724312        1.1571491456        0.9803642149
 H         -0.0118350805        1.4219223486       -3.8151425329
 H          3.9404371240       -1.5301971344        2.4038353005
 H         -2.6612873444       -1.5386490141        2.6247864628
 H          4.2286929872        2.7080222044        2.9995156092
 H         -3.6821666270        2.3877612861        1.1916891712
 H          1.0861317179        5.3524749108        0.3252377046
 H         -3.3076457911       -0.9154604075       -2.4348890905
 H          3.7853747499        3.0407957353       -2.1004377175
 H          0.5745842662       -2.6988496418       -2.8179738436
 H          0.6368639466       -1.8068406952        4.1703435357
 H          0.2032409258       -1.9177492273        0.2176971025
 H          2.3697559644        3.9452969746        3.8799300957
 H         -0.7679707115        2.5200508146       -1.1656122589
 H         -0.1405318179        2.3451221514        2.2030742919
 H         -3.6011575394        1.4459970841       -2.7426973551
 H          3.0230888518       -0.1659058457       -0.2895322595
 H          2.1665683218        0.4381758575       -4.1317007320
 H          0.3359243706       -4.0228533842        3.8273896596
 H          0.7845921895       -4.0130105148        0.8034965930
 H          0.6477075159        5.1669193337        4.7232881435
 H         -1.6013577851        3.4627328437        3.5538556274
 H         -1.2187630305        4.5953136351       -2.0114313474
 H         -3.9437641465        3.6732729897       -3.0378442103
 H          4.4624453797       -1.4754233824       -1.4233676540
 H          4.2763003000       -0.3759713221       -4.2696680543
 C         -6.7633459070      -10.1846680246       -4.1954655607
 C         -7.3069686336      -11.5399584350       -4.6526272228
 O         -6.4283340079      -10.2218389836       -2.8185007828
 C         -5.4842168796      -11.2481102117       -2.5620012488
 C         -6.0266475816      -12.6037717404       -3.0193483480
 O         -6.3640519486      -12.5673586452       -4.3961604349
 H         -7.5170027066       -9.4046727994       -4.3050770017
 H         -8.2434404598      -11.7591827794       -4.1193116546
 H         -4.5478809594      -11.0273518931       -3.0946700265
 H         -6.9184032801      -12.8609229244       -2.4295041180
 H         -7.4813220422      -11.5478669392       -5.7286720731
 H         -5.3103777200      -11.2401639523       -1.4859391914
 H         -5.2718489314      -13.3828092743       -2.9112387638
 H         -5.8704555908       -9.9285080669       -4.7841569321