142
-211.12762165
 C         -0.5464484834       -6.8598877300        1.2713932328
 C         -0.9286286316       -6.6664763164       -0.1926689392
 C         -3.9715583696        5.0525061822        4.9261308453
 C         -4.4560089774        5.2889342051        3.4992090392
 C         -1.9192738215        7.2111163032       -3.6536809302
 C         -2.0506639597        6.8328624494       -5.1255267021
 C          6.5923783659       -2.3704214963       -1.4782581960
 C          6.4732899069       -2.6330713288       -2.9759945809
 C          0.2507689474       -5.6619219047        1.7742302391
 C         -1.7265189674       -5.3802191760       -0.3689428575
 C         -3.1778490469        3.7536939102        5.0114967177
 C         -3.2761620801        5.3212395370        2.5341717953
 C         -2.5132275158        6.1212800188       -2.7683082723
 C         -1.3685892312        5.4964230351       -5.3954852448
 C          5.9250873507       -1.0492238351       -1.1157585353
 C          5.0085576934       -2.6410869555       -3.3979331273
 C         -0.0874219314        0.0517801950        3.3869828103
 C         -1.5970824368        0.3988711046       -1.1954834613
 C          0.9994993512        1.7450120148        0.3023750835
 C          0.2393134943        0.7777836225       -4.3712826929
 C          1.9411387568       -1.0863781793        2.7616331744
 C         -3.4196326405       -0.7081041748       -0.0786605687
 C          2.0108145376        1.2342167405        3.4298439929
 C         -3.6401758437        1.5995579020       -0.7668501195
 C          1.0239847663        4.1458739792        0.1148981937
 C         -1.8712399688       -0.3824503183       -4.4129921563
 C          2.8254026828        2.8351356781       -0.8254434384
 C          0.1725631803       -1.5999245015       -3.9919456388
 C         -0.2208603785       -2.2897323272        2.6273726067
 C         -1.3257829683       -1.9579678303       -0.5257199553
 C         -0.0651746377        2.4712142317        3.9083045299
 C         -1.7655698600        2.7401564342       -1.9240769104
 C         -0.8541265974        3.0247448842        1.2855404331
 C         -1.8550511330        2.0708905802       -4.6333542967
 C          2.8172761746        0.3640441830       -0.6284867553
 C          2.3398126688       -0.4055970357       -3.8577306306
 C          0.5561006743       -1.0992014529        2.9472909008
 C         -2.1259902876       -0.7434334985       -0.6023361996
 C          0.6284775029        1.2268503589        3.6117885360
 C         -2.3439912587        1.5712375263       -1.2799802351
 C          0.4009764861        2.9774969959        0.5518176274
 C         -1.1474442832        0.8051244575       -4.5123729715
 C          2.2100153263        1.6642007436       -0.3791464149
 C          0.9021966028       -0.4125700142       -4.0955058738
 C          2.6422442522        0.0744627806        3.0167638096
 C         -4.1498619988        0.4613872970       -0.1694687442
 C          2.2202614187        4.0511793120       -0.5721567744
 C         -1.1962647061       -1.5641492443       -4.1632982271
 C         -0.5402438854       -4.3649675925        1.6073332696
 C         -0.9288799856       -4.1693475658        0.1193514714
 C         -1.9815677019        3.7795520611        4.0637015105
 C         -2.4812549846        4.0212627698        2.6009644572
 C         -1.8296030413        4.7812637395       -3.0199406419
 C         -1.9668176993        4.3912700382       -4.5289659796
 C          4.4506943005       -1.0483646286       -1.5245471329
 C          4.3287462489       -1.3183468522       -3.0464506484
 Br         4.5349454957        0.0962674250        2.7573138617
 Br        -5.9146477243        0.5135709827        0.5615741334
 Br         3.0544852378        5.6520998297       -1.1986727098
 Br        -2.1969054248       -3.1849275396       -4.0148096995
 N          0.2806846768       -3.2555702450        1.9871381420
 N         -1.7506011096       -3.0043598591        0.0355677067
 N         -1.3226502425        2.5176152240        4.0451102841
 N         -2.4532419288        3.7488967680       -2.2553954728
 N         -1.3263827997        4.0960961766        1.7643303186
 N         -1.2408049601        3.1765044273       -4.6841401262
 N          3.8966892056        0.2428388632       -1.2692776978
 N          2.9339016563       -1.4009851952       -3.3570989098
 H         -1.4517022216       -6.9720381940        1.8720448599
 H          0.0494564294       -7.7669209676        1.3856855165
 H         -1.5254954873       -7.5114223622       -0.5393521171
 H         -0.0243852853       -6.6196107708       -0.8034072067
 H         -3.3385618711        5.8860839431        5.2390382866
 H         -4.8232784047        5.0020848103        5.6063070364
 H         -5.1394781688        4.4875886269        3.2095172320
 H         -4.9995498092        6.2332377251        3.4407580675
 H         -0.8640218080        7.3450775252       -3.4052669695
 H         -2.4329486099        8.1547142608       -3.4630464421
 H         -1.5980440261        7.6036959393       -5.7512756082
 H         -3.1080567989        6.7608480242       -5.3904453379
 H          7.6428902590       -2.3359412092       -1.1855198477
 H          6.1150834535       -3.1826461379       -0.9256427992
 H          6.9285535316       -3.5929159805       -3.2257523994
 H          7.0058092544       -1.8538404345       -3.5257682569
 H          0.4988924347       -5.7830901084        2.8305103019
 H          1.1843693992       -5.5688718643        1.2168016148
 H         -1.9822653537       -5.2289034820       -1.4193343979
 H         -2.6563631066       -5.4303368461        0.1996107810
 H         -3.8104435509        2.9051287230        4.7460020572
 H         -2.8118738022        3.5967537401        6.0282666976
 H         -2.6079269991        6.1488867729        2.7774116326
 H         -3.6265819105        5.4595704537        1.5097772898
 H         -3.5801686655        6.0086152010       -2.9674095915
 H         -2.3914490425        6.3788851589       -1.7146997375
 H         -0.3012979665        5.5655010791       -5.1790701076
 H         -1.4828434466        5.2152874092       -6.4444307119
 H          6.4223083180       -0.2218788155       -1.6243555335
 H          5.9889143076       -0.8701446419       -0.0408026719
 H          4.4744573393       -3.4474957952       -2.8925215500
 H          4.9219152681       -2.8024796549       -4.4744067630
 H         -1.1565073624        0.0682995145        3.5319961780
 H         -0.5971905081        0.3767290722       -1.6051980412
 H          0.5196175550        0.8421154209        0.6524978049
 H          0.7800752270        1.7081944788       -4.4498016099
 H          2.4312887888       -1.9841168150        2.4205898531
 H         -3.8207511031       -1.5968982193        0.3810928437
 H          2.5784967140        2.1368672422        3.5987914851
 H         -4.2130490258        2.5098012140       -0.8419106751
 H          0.5559363029        5.0958151009        0.3171206816
 H         -2.9456834820       -0.3768162504       -4.5184998225
 H          3.7618946941        2.7631123819       -1.3546238649
 H          0.6955401161       -2.5181602976       -3.7777989849
 H         -1.2716522825       -2.2756660227        2.9479669747
 H         -0.3291886858       -1.8989374498       -0.9917745632
 H          0.5628645919        3.3732583571        3.9501267359
 H         -0.6837337595        2.6807952009       -2.1140854505
 H         -1.3609217855        2.0559130933        1.4062617640
 H         -2.9532501251        2.0104896138       -4.6206435080
 H          2.2711096806       -0.5007653858       -0.2190691033
 H          2.8613376435        0.5283213244       -4.1088729753
 H         -1.4757643979       -4.3995770309        2.1908157111
 H          0.0020057204       -4.0579911413       -0.4644589571
 H         -1.2946212921        4.6052578066        4.3186783482
 H         -3.1164867660        3.1591370910        2.3390055295
 H         -0.7496002152        4.8460462409       -2.8086474000
 H         -3.0428846794        4.2640276141       -4.7402253420
 H          3.9006568881       -1.8442015705       -0.9917712450
 H          4.8146868282       -0.4777125795       -3.5700798100
 C          0.8568415673       -9.1942597345        5.3152365693
 C          1.0723789462      -10.6954519521        5.1136393709
 O          0.8623769688       -8.8698331689        6.6956008176
 C          2.0744256832       -9.2861963381        7.3022011630
 C          2.2896280907      -10.7874914535        7.1000899005
 O          2.2852552321      -11.1101707090        5.7196353236
 H         -0.1168551357       -8.8859703401        4.9346384654
 H          0.2322700970      -11.2505798256        5.5553727088
 H          2.9152228774       -8.7313291762        6.8611917070
 H          1.4913114088      -11.3454691916        7.6105644902
 H          1.1623339296      -10.9376896913        4.0546192567
 H          1.9842895186       -9.0443533461        8.3613136700
 H          3.2623570692      -11.0966861564        7.4828315593
 H          1.6552861442       -8.6371480759        4.8042093833