142
-211.12629557
 C          7.6520187656       -2.8800930890        3.8226398703
 C          8.1781572011       -3.4259508327        2.4987864740
 C         -0.6716956613        4.6335835924        8.3064918204
 C         -1.7512919787        3.5888346825        8.5692821174
 C          2.7441579075        5.6422804314       -4.7020392225
 C          1.7352715305        6.1728923796       -3.6891576898
 C         -2.5565256897       -7.0209907696        1.8510486767
 C         -1.3403135523       -7.0819039514        0.9316699415
 C          7.0001377532       -1.5170024034        3.6189917395
 C          7.0536851738       -3.5125199864        1.4728164257
 C          0.3717898142        4.0886246715        7.3382545121
 C         -2.4032872784        3.1576549691        7.2607621827
 C          3.3086314164        4.3061132277       -4.2346293921
 C          0.6099439556        5.1655401580       -3.4841508157
 C         -2.6916008992       -5.6335653316        2.4694968276
 C         -1.4398869265       -6.0182791993       -0.1563441803
 C          2.6154200318        1.8398925473        3.4356685274
 C          3.6628648283       -0.2429768071       -2.1595033198
 C         -2.7343091922       -0.5882911834        2.9727934096
 C         -0.5585028273       -0.2730106649       -1.2462812235
 C          4.1491677338        2.1632005705        1.6066477024
 C          3.2444433541       -2.5485397580       -1.6043569452
 C          2.5511812317        3.8856489090        2.1653871535
 C          1.8571306538       -1.4218213714       -3.2316272298
 C         -3.1789589608        1.7372823336        2.5288865289
 C         -1.8320475685        0.7971440817       -2.9889169540
 C         -3.9057185043        0.0457358287        0.9656919195
 C         -2.4612847562       -1.3994435625       -2.1987076676
 C          4.2142294174        0.0392999844        2.8678875079
 C          5.1105449911       -1.3465755763       -0.4997189292
 C          1.0257242332        3.6356958651        4.0803485005
 C          2.1950523665        0.9663073242       -3.7444620524
 C         -2.0000105959        1.1039232747        4.6111382124
 C          0.1650701071        1.9345004881       -2.0736647578
 C         -3.4387465893       -2.3339827277        1.3521585634
 C         -1.1588617454       -2.5116369040       -0.4087245849
 C          3.6503572243        1.3641378276        2.6381407342
 C          3.9921993227       -1.3808612419       -1.4323872702
 C          2.0715228829        3.1043432693        3.2160301469
 C          2.5897247522       -0.2500225200       -3.0481209317
 C         -2.6453401566        0.7453368238        3.3557064412
 C         -0.7645199352        0.8148176730       -2.0901059723
 C         -3.3675680226       -0.9460298221        1.7844753623
 C         -1.3918466199       -1.3876720723       -1.3029950706
 C          3.5863248266        3.4029068047        1.3845294187
 C          2.2006862912       -2.5496099034       -2.5072732320
 C         -3.7916032186        1.3699491638        1.3484792071
 C         -2.6626317414       -0.3055581970       -3.0188179554
 C          5.8556732102       -1.6096147139        2.6026172333
 C          6.4062613846       -2.1444954583        1.2623676583
 C         -0.2783298904        3.6632575929        6.0172421874
 C         -1.3595961305        2.5981653683        6.2888894392
 C          2.1982418972        3.2780670757       -4.0345249091
 C          1.1563625380        3.8240731967       -3.0038633009
 C         -2.8044670124       -4.5638022779        1.3870237154
 C         -1.5509421042       -4.6263814131        0.4607162516
 Br         4.2502810435        4.4868889099       -0.0411546457
 Br         1.2002414233       -4.1565302177       -2.7739854394
 Br        -4.4997921676        2.7286721239        0.2015552950
 Br        -4.1349273676       -0.3230559042       -4.2332224615
 N          5.3211270652       -0.3028543319        2.3685167387
 N          5.3133941080       -2.2648688126        0.3423869426
 N          0.7239396678        3.0853420813        5.1748720216
 N          2.7304085083        2.0808122348       -3.4753216517
 N         -1.9993768341        2.2876596439        5.0476950001
 N          0.1120269201        2.8576202889       -2.9366841598
 N         -2.8293801853       -3.2577766988        1.9685625805
 N         -1.7291209276       -3.6314394283       -0.5461536544
 H          6.9179996275       -3.5750450053        4.2368309697
 H          8.4695007971       -2.7858916794        4.5397093405
 H          8.6117732691       -4.4159640563        2.6497705241
 H          8.9639818225       -2.7679712476        2.1209274960
 H         -1.1285799195        5.5301902037        7.8817627599
 H         -0.1857767940        4.9136664075        9.2427744230
 H         -1.3055431231        2.7192018807        9.0573718234
 H         -2.5123209620        3.9970426272        9.2365222132
 H          2.2561774908        5.5140750062       -5.6710537695
 H          3.5598578900        6.3561958552       -4.8256527456
 H          1.3172092474        7.1192305754       -4.0361501763
 H          2.2403649971        6.3527300406       -2.7377749103
 H         -2.4638089803       -7.7655820928        2.6436407792
 H         -3.4569607815       -7.2504201695        1.2770290715
 H         -1.2700425414       -8.0676152530        0.4693018371
 H         -0.4325964563       -6.9189272503        1.5169558738
 H          6.6009379321       -1.1389067426        4.5630942006
 H          7.7339283839       -0.7975793682        3.2509612495
 H          7.4373343345       -3.8715845111        0.5159395728
 H          6.2853181652       -4.2105273423        1.8096255076
 H          0.8739078133        3.2213743262        7.7706517848
 H          1.1298515246        4.8462303880        7.1275886590
 H         -2.8966861917        4.0071097230        6.7853033289
 H         -3.1579085726        2.3897853876        7.4441193780
 H          3.8358798411        4.4314012940       -3.2877031156
 H          4.0161814892        3.9135212143       -4.9675158439
 H          0.0701621882        5.0036331357       -4.4185729228
 H         -0.1029593452        5.5342510263       -2.7438705611
 H         -1.8221099355       -5.4089291985        3.0895576441
 H         -3.5789236377       -5.5834951708        3.1036878503
 H         -2.3168492813       -6.1979398292       -0.7790053296
 H         -0.5597280038       -6.0446206772       -0.8012140152
 H          2.2232226541        1.2490258334        4.2483916844
 H          4.2228128343        0.6719242926       -2.0478282081
 H         -2.3238301295       -1.3731614257        3.5886266131
 H          0.2674681536       -0.2567968268       -0.5486442006
 H          4.9616447548        1.7906142663        1.0046106155
 H          3.5061819303       -3.4267748216       -1.0365415005
 H          2.1302131297        4.8614149610        1.9740558246
 H          1.0311658209       -1.4461620145       -3.9263160845
 H         -3.1010487439        2.7685045092        2.8329735084
 H         -1.9863053896        1.6477009917       -3.6332910421
 H         -4.3942572310       -0.2231449445        0.0416826602
 H         -3.1234131169       -2.2484501288       -2.2189551610
 H          3.6170067376       -0.6322057096        3.5018498778
 H          5.7592483280       -0.4630198916       -0.5721032828
 H          0.5388148090        4.5592053025        3.7337740437
 H          1.3956352584        0.8588272249       -4.4917640147
 H         -1.5238825323        0.2756926586        5.1558449102
 H          0.9292128985        1.9084450919       -1.2817697915
 H         -4.0324152681       -2.5234887955        0.4483977442
 H         -0.4384382693       -2.3219392061        0.4026919225
 H          5.0851659060       -2.3045447831        2.9792304183
 H          7.1523595675       -1.4143489344        0.9050071713
 H         -0.7612254314        4.5333789145        5.5385275170
 H         -0.8698311853        1.7115403553        6.7293515467
 H          1.6548824617        3.0919728655       -4.9766385668
 H          1.6848282550        3.9361356612       -2.0426090761
 H         -3.6863426899       -4.7411927036        0.7514210152
 H         -0.6683343659       -4.4128236865        1.0894874516
 C         -4.6813658307       -4.5173382200       -2.0727530536
 C         -4.8858809977       -4.7248599872       -3.5731015147
 O         -5.2448174156       -3.2790792142       -1.6593370720
 C         -6.6221419622       -3.2199740683       -1.9920222674
 C         -6.8277109186       -3.4426192517       -3.4915112812
 O         -6.2666375996       -4.6811653947       -3.8933783747
 H         -3.6205968139       -4.4693071260       -1.8183032279
 H         -4.3545386146       -3.9431821045       -4.1340696267
 H         -7.1661300044       -3.9901137123       -1.4259082584
 H         -6.3565947323       -2.6244077951       -4.0540016798
 H         -4.5290537439       -5.7077495879       -3.8807418084
 H         -6.9688907129       -2.2290172293       -1.6978665195
 H         -7.8895473091       -3.4944091357       -3.7317969486
 H         -5.1689613693       -5.3364717262       -1.5238021809