142
-211.12679224
 C         -1.5126039765       -6.5224108911        1.3254467260
 C         -1.9447242445       -6.2554381002       -0.1126842859
 C         -3.1072322528        5.6532052521        5.3133086974
 C         -3.6289256735        5.9944752391        3.9212119350
 C         -1.3436832571        7.7255538427       -3.2864625099
 C         -1.6009162398        7.3991121335       -4.7540567481
 C          6.1248255795       -2.8123311612       -1.8279662555
 C          5.8780159767       -3.0290948579       -3.3173989922
 C         -0.5318864827       -5.4523760424        1.7909805363
 C         -2.5706473090       -4.8710958358       -0.2306080208
 C         -2.4883464578        4.2600612685        5.3237139290
 C         -2.5066748924        5.9018125099        2.8934475812
 C         -2.0120064191        6.6930603930       -2.3855711685
 C         -1.0976053177        5.9985363452       -5.0843664165
 C          5.6431835769       -1.4296604108       -1.4056815110
 C          4.3981593316       -2.8575127775       -3.6399833907
 C         -0.0078758974        0.2322134631        3.4662523799
 C         -1.7277444830        0.8653755497       -0.9649872061
 C          1.1665142182        1.8884871188        0.3530077100
 C          0.0040172632        1.1077159229       -4.2387565151
 C          1.8120599985       -1.1524630553        2.7102529603
 C         -3.6194260843       -0.0319585340        0.2230165482
 C          2.2288676756        1.1239878130        3.4045147157
 C         -3.5778359278        2.3023707071       -0.4056482110
 C          1.4769423161        4.2731064114        0.2209970450
 C         -2.2241957654        0.1949408007       -4.1757300305
 C          3.0556888417        2.7816363832       -0.8420001292
 C         -0.3118829846       -1.2561516895       -3.9017419940
 C         -0.4958768751       -2.0562284328        2.6915750867
 C         -1.7288528066       -1.5250804181       -0.3586465437
 C          0.3665404115        2.6143261266        4.0230649735
 C         -1.6367704386        3.2278876027       -1.6407847004
 C         -0.4647885675        3.3556392020        1.4621212187
 C         -1.9392936483        2.6360368731       -4.3515113392
 C          2.7556268778        0.3251512167       -0.7001931651
 C          1.9824915038       -0.3183487974       -3.8827689358
 C          0.4502922954       -0.9851730457        2.9760627889
 C         -2.3683757284       -0.2164658055       -0.3685373403
 C          0.8702152820        1.2965952400        3.6657367088
 C         -2.3232342135        2.1241541632       -0.9874540720
 C          0.7370525540        3.1766837492        0.6622048767
 C         -1.3763139296        1.2952936555       -4.2953420416
 C          2.3237575088        1.6814395888       -0.3915739697
 C          0.5415270376       -0.1566294733       -4.0271814179
 C          2.6752340607       -0.1004084704        2.9395141007
 C         -4.1979059743        1.2224673964        0.1953552580
 C          2.6174276112        4.0542033817       -0.5295880778
 C         -1.6753074224       -1.0615135224       -3.9896163281
 C         -1.1478089169       -4.0579250512        1.6839649911
 C         -1.5930229601       -3.7854526520        0.2237140806
 C         -1.3488206204        4.1588372186        4.3130657436
 C         -1.8854748714        4.5087795055        2.8857948207
 C         -1.5090386850        5.2873970790       -2.6980528177
 C         -1.7735688339        4.9514078802       -4.2030862677
 C          4.1555064078       -1.2487766554       -1.7135421858
 C          3.9022072067       -1.4723152075       -3.2268777115
 Br         4.5368291354       -0.3249057669        2.5720713024
 Br        -5.9027210658        1.4780211033        1.0199695481
 Br         3.6099515689        5.5599637357       -1.1615078760
 Br        -2.8446935983       -2.5624209574       -3.8138234575
 N         -0.1641194949       -3.0749766804        2.0233531080
 N         -2.2581302240       -2.5220448975        0.2038839188
 N         -0.8647636150        2.8226526543        4.2295009216
 N         -2.2120037560        4.3198882378       -1.9179935089
 N         -0.7733184751        4.4623223153        1.9913898971
 N         -1.2045840572        3.6645253668       -4.4194682021
 N          3.7755248442        0.0926655223       -1.4046478172
 N          2.4897397280       -1.3880023229       -3.4435299521
 H         -2.3901680609       -6.5191481802        1.9757570389
 H         -1.0419874503       -7.5042055128        1.3998003769
 H         -2.6679273777       -7.0069375522       -0.4330130328
 H         -1.0771620470       -6.3197325082       -0.7730375728
 H         -2.3546947402        6.3870823588        5.6108571077
 H         -3.9221944534        5.6931580388        6.0377934803
 H         -4.4265520975        5.2988396187        3.6509296398
 H         -4.0448756358        7.0032048762        3.9150743570
 H         -0.2677902105        7.7295017486       -3.0976577569
 H         -1.7309407687        8.7181285564       -3.0510808596
 H         -1.0957564270        8.1256544128       -5.3924592976
 H         -2.6725012310        7.4575818957       -4.9584108622
 H          7.1888662826       -2.9070411717       -1.6059840940
 H          5.5918632025       -3.5738033899       -1.2544151178
 H          6.1995521817       -4.0303447941       -3.6090185471
 H          6.4616538200       -2.3065292829       -3.8921240133
 H         -0.2412940863       -5.6262344787        2.8290894383
 H          0.3718099060       -5.4769596194        1.1796572210
 H         -2.8606124364       -4.6683450024       -1.2633399057
 H         -3.4663349418       -4.8067531947        0.3891065445
 H         -3.2400291434        3.5099358859        5.0726698334
 H         -2.0949830955        4.0251440317        6.3149005526
 H         -1.7240816669        6.6283598337        3.1179126893
 H         -2.8889533031        6.1146119467        1.8935151939
 H         -3.0943704962        6.7118005395       -2.5229420659
 H         -1.8004490124        6.9101907332       -1.3370696661
 H         -0.0193279794        5.9370411368       -4.9285307368
 H         -1.3019651047        5.7567132698       -6.1294155704
 H          6.1997600991       -0.6562618861       -1.9372009556
 H          5.7978542330       -1.2804238571       -0.3353929530
 H          3.8070174201       -3.6064151569       -3.1101912445
 H          4.2231161434       -2.9856137110       -4.7101773032
 H         -1.0553764458        0.3877046334        3.6730966765
 H         -0.7600909027        0.7284739079       -1.4265906980
 H          0.5965269246        1.0407982367        0.7061265542
 H          0.6420301037        1.9728463653       -4.3321651136
 H          2.1578838266       -2.1002371508        2.3298519251
 H         -4.1073574782       -0.8752942944        0.6844572475
 H          2.9209627958        1.9391105592        3.5533545820
 H         -4.0329327593        3.2793886514       -0.4324786403
 H          1.1395926427        5.2664377786        0.4697535005
 H         -3.2952302948        0.3244294614       -4.2168706258
 H          3.9495134357        2.6119847497       -1.4203744101
 H          0.1142838741       -2.2328235283       -3.7372159468
 H         -1.5170386414       -1.9035331399        3.0673896903
 H         -0.7577280129       -1.5830157807       -0.8756734238
 H          1.1111492264        3.4234410583        4.0490242254
 H         -0.5815829247        3.0415023196       -1.8891373196
 H         -1.0832562448        2.4543967652        1.5850463130
 H         -3.0346637783        2.7013799730       -4.2761277411
 H          2.1337820006       -0.4790045846       -0.2753876564
 H          2.5903153708        0.5573900147       -4.1491945058
 H         -2.0440892265       -3.9760508436        2.3218453724
 H         -0.6907300773       -3.7853232453       -0.4130515950
 H         -0.5467689231        4.8794535038        4.5498938830
 H         -2.6392882412        3.7439715088        2.6363219781
 H         -0.4193291185        5.2173009902       -2.5462780262
 H         -2.8670584647        4.9552708674       -4.3546456948
 H          3.5519522470       -1.9858139467       -1.1548660426
 H          4.4468113508       -0.6829374179       -3.7720625411
 C          0.9896443452      -14.4429355337        3.8994272504
 C          1.5960426959      -14.8159188591        5.2538245821
 O          0.9794715147      -13.0356050377        3.7276648174
 C          2.2897725505      -12.5079139979        3.8502073407
 C          2.8936691738      -12.8791489979        5.2060055162
 O          2.9056169370      -14.2865578507        5.3769663964
 H         -0.0497106426      -14.7653894913        3.8358233919
 H          0.9628989164      -14.4213519661        6.0617070709
 H          2.9231803462      -12.9062319106        3.0444055998
 H          2.3037532340      -12.4163267912        6.0104142687
 H          1.6937841794      -15.8970893047        5.3525971064
 H          2.1940576006      -11.4268865644        3.7483454950
 H          3.9322665586      -12.5549307310        5.2728647952
 H          1.5762987924      -14.9071873117        3.0935251148