142
-211.12713618
 C          1.0244301238       -7.5501572839        1.8683153202
 C          0.4816542106       -7.4818042034        0.4447057890
 C         -4.1703931272        4.0155177710        4.2633316094
 C         -4.6314575076        4.1771049050        2.8183079389
 C         -3.2669159223        5.7343266645       -3.5365024184
 C         -3.3544984867        5.1910232152       -4.9585446541
 C          7.4548809577       -0.3653095155       -0.7817109836
 C          7.4591839592       -1.1248556793       -2.1036271641
 C          1.6641493849       -6.2217853895        2.2551075518
 C         -0.5264556523       -6.3465257626        0.3150867848
 C         -3.1983908109        2.8474599058        4.3871155669
 C         -3.4334809548        4.3894612202        1.8978134843
 C         -3.5274034460        4.6220135037       -2.5274288415
 C         -2.3591473192        4.0531697937       -5.1523033206
 C          6.4863286231        0.8085084933       -0.8477076886
 C          6.0539869225       -1.6138929439       -2.4322540305
 C          0.4334182412       -0.4464596234        3.2451269842
 C         -1.2879902967       -0.5686023343       -0.5015890290
 C          1.1352116452        2.9281988861       -0.1549431734
 C          0.5279873305        0.1267023655       -3.8600426423
 C          2.6388042322       -1.3606427265        2.9205355414
 C         -2.8311054175       -1.9083474540        0.7713283664
 C          2.3446100866        1.0192241013        3.2265763186
 C         -3.5000555038        0.2658289537       -0.0433879421
 C          0.6854157056        5.0471872697       -1.2074969228
 C         -1.1312750029       -1.6136863755       -3.7223223345
 C          2.6712015987        3.8001790924       -1.7910955550
 C          1.1976823524       -2.1202333410       -3.3161671046
 C          0.6667207363       -2.8664850761        2.8805039235
 C         -0.6054640019       -2.8341715285        0.2081609906
 C          0.0897524443        1.9942523686        3.4521949294
 C         -1.9516952900        1.6263907781       -1.4094126608
 C         -0.9238650239        4.1706691930        0.4499352674
 C         -1.8578684722        0.7173455455       -4.0923909866
 C          3.1609840059        1.6268091344       -0.7108111095
 C          2.9025170541       -0.3179644919       -3.3806983312
 C          1.2582897678       -1.5437388595        3.0323800954
 C         -1.5822275867       -1.7539736695        0.1679322854
 C          0.9652576556        0.8388313098        3.3260194844
 C         -2.2454150306        0.4344747398       -0.6281641005
 C          0.3182520990        4.0484423843       -0.3083124714
 C         -0.8056232815       -0.2737638518       -3.9255502919
 C          2.3108255523        2.7981109673       -0.8850126569
 C          1.5281037334       -0.7807091985       -3.5347166352
 C          3.1549493293       -0.0855000566        3.0317969149
 C         -3.7586383536       -0.8913158170        0.6655422651
 C          1.8521214103        4.9002920304       -1.9384406401
 C         -0.1202985159       -2.5140511247       -3.4358029793
 C          0.6669445513       -5.0713894246        2.1365868213
 C          0.1045326181       -5.0050601911        0.6871251418
 C         -1.9940360132        3.0323589804        3.4652109412
 C         -2.4745406136        3.2037451174        1.9970249632
 C         -2.5345068853        3.4758572703       -2.6984757488
 C         -2.6110767339        2.9225124996       -4.1571342076
 C          5.0655102108        0.3404595596       -1.1750654099
 C          5.0656334460       -0.4511958373       -2.5078935935
 Br         5.0464188058        0.1710969667        2.8969094825
 Br        -5.4575699437       -1.0927281655        1.5075094694
 Br         2.3315707601        6.2649495187       -3.1922568580
 Br        -0.5693495758       -4.3509917578       -3.1789632940
 N          1.3273961376       -3.8295448174        2.3933645409
 N         -0.8923093089       -3.9832327755        0.6492637462
 N         -1.1648141570        1.8698420543        3.5026945408
 N         -2.8650634432        2.4048087322       -1.8115300771
 N         -1.3050003163        3.2141124379        1.1771665136
 N         -1.5834168956        1.9422083694       -4.2501177955
 N          4.2401149062        1.4924347230       -1.3503740149
 N          3.7467875934       -0.9743448439       -2.7105211540
 H          0.2082260190       -7.7767626611        2.5580460088
 H          1.7651245331       -8.3475400368        1.9492559116
 H          0.0006029052       -8.4247496640        0.1805865640
 H          1.3046228500       -7.3165507327       -0.2537211570
 H         -3.6800026720        4.9343813230        4.5947601989
 H         -5.0309678254        3.8420100678        4.9111411991
 H         -5.1741386705        3.2821675296        2.5075398817
 H         -5.3100657485        5.0283957462        2.7362872039
 H         -2.2713113013        6.1524099573       -3.3716755418
 H         -3.9965625301        6.5334189888       -3.3948079695
 H         -3.1419076887        5.9851096612       -5.6760851244
 H         -4.3663943281        4.8259271234       -5.1478576141
 H          8.4556687240        0.0067186230       -0.5572512448
 H          7.1560199966       -1.0352267185        0.0268323717
 H          8.1371510964       -1.9778146510       -2.0441940663
 H          7.8124856746       -0.4674958444       -2.9013598292
 H          2.0311565110       -6.2596733039        3.2829149235
 H          2.5130390558       -6.0085361167        1.6034170391
 H         -0.8963273456       -6.2820691585       -0.7097032611
 H         -1.3791015024       -6.5231731962        0.9726399127
 H         -3.6937506065        1.9132928867        4.1193051789
 H         -2.8415118765        2.7572063041        5.4151164900
 H         -2.9129462802        5.3077455599        2.1834906215
 H         -3.7689687555        4.4868481527        0.8623712402
 H         -4.5360971098        4.2251243895       -2.6526177691
 H         -3.4423632742        5.0042519531       -1.5083602853
 H         -1.3388333180        4.4143341572       -5.0115917745
 H         -2.4356089736        3.6482556307       -6.1634129289
 H          6.7994198850        1.5151244088       -1.6181214002
 H          6.4653204453        1.3341573532        0.1087576920
 H          5.7077081943       -2.3067585443       -1.6635524294
 H          6.0457761133       -2.1401301306       -3.3889161889
 H         -0.6351103145       -0.5665792304        3.3235673479
 H         -0.3166225884       -0.4363739106       -0.9568542263
 H          0.8277468125        2.1676921354        0.5471792752
 H          0.7574665680        1.1663491684       -4.0334011056
 H          3.2697390488       -2.2180816979        2.7492109721
 H         -3.0409957289       -2.8158752783        1.3114752375
 H          2.7733482332        2.0083268074        3.2922962594
 H         -4.2403055464        1.0409317733       -0.1611945579
 H          0.0650748342        5.9213608047       -1.3364722352
 H         -2.1582717795       -1.9414924853       -3.7797567483
 H          3.5842751142        3.6905584320       -2.3535099961
 H          1.9790654162       -2.8188726710       -3.0630925846
 H         -0.3824317261       -2.9576918770        3.1874856677
 H          0.3844711666       -2.5941431815       -0.2101473117
 H          0.5863136336        2.9764699034        3.4623672822
 H         -0.8913867670        1.7894612411       -1.6456091983
 H         -1.4681312222        5.1129201077        0.3196643643
 H         -2.8910217985        0.3481963500       -4.0194180473
 H          2.8041732644        0.8802941330        0.0159573594
 H          3.1385826959        0.6454472796       -3.8529967446
 H         -0.1903204792       -5.2237420935        2.8109464676
 H          0.9504008388       -4.7756507921        0.0169025948
 H         -1.4325246333        3.9458598349        3.7395598060
 H         -2.9978063705        2.2779031893        1.7272077852
 H         -1.4992954406        3.8238902660       -2.5467290044
 H         -3.6175334617        2.4908316134       -4.2964380448
 H          4.6862725184       -0.3241289614       -0.3793764334
 H          5.3496305145        0.2557411896       -3.3049018253
 C         -3.2464921033       -3.2023242126        5.1913099072
 C         -2.9694288762       -4.3411363547        6.1738748345
 O         -2.6331484976       -3.4675059635        3.9406934049
 C         -3.0918695834       -4.7028405272        3.4106915733
 C         -2.8177048045       -5.8404672932        4.3950471315
 O         -3.4253547266       -5.5757178035        5.6479869039
 H         -2.8214388382       -2.2648189919        5.5505742207
 H         -1.8887197760       -4.4024552831        6.3717041482
 H         -4.1725244928       -4.6405218327        3.2186893113
 H         -1.7325699967       -5.9576601603        4.5356276733
 H         -3.5091198070       -4.1892588172        7.1085431886
 H         -2.5499603347       -4.8492880018        2.4743988696
 H         -3.2486137444       -6.7762206935        4.0386046859
 H         -4.3310705083       -3.0925404130        5.0517137321