142
-211.12668618
 C         -0.3578713161       -6.3769030016        3.3571425997
 C         -1.4438348376       -6.2643109494        2.2920336355
 C         -0.4939844013        6.1021557265        6.5026771878
 C         -1.6412982347        6.2828675395        5.5140591919
 C         -3.0698056864        7.3220190718       -2.0579241226
 C         -3.9764470198        6.8593398495       -3.1939004180
 C          4.7334172382       -2.8870855895       -3.4859208590
 C          3.8248860606       -3.2623235848       -4.6522130030
 C          0.6738299277       -5.2686255129        3.1814071246
 C         -2.1127700553       -4.8966595279        2.3572223171
 C          0.1443486435        4.7284069627        6.3319361471
 C         -1.1452294361        6.1014629089        4.0839596326
 C         -3.1910689183        6.3821296735       -0.8637839013
 C         -3.6320855782        5.4316527489       -3.6026498400
 C          4.4174446176       -1.4784841718       -2.9980183411
 C          2.3611987895       -3.1552348990       -4.2400962585
 C          1.6531018914        0.5580626432        3.8675044279
 C         -2.0009966839        0.7240138400        0.7573355866
 C          1.1114796446        1.9098839364        0.4243073409
 C         -2.0270486627        0.6614062797       -2.9838702454
 C          2.9551807590       -0.8894742957        2.4499772203
 C         -3.0469307485       -0.0374020499        2.7875486258
 C          3.5313777394        1.4488115468        2.6510111527
 C         -3.4247576328        2.2170425916        2.0004166475
 C          1.1613423131        4.2737590785       -0.0343673611
 C         -3.8966391385       -0.2615862758       -1.7781537147
 C          2.1259271511        2.7106669162       -1.6066331202
 C         -2.0060897425       -1.6587340214       -2.3385698683
 C          0.9746835713       -1.7985136479        3.6335493783
 C         -1.5976873799       -1.5899138973        1.5118205447
 C          2.1166744288        2.9861935617        3.9600081874
 C         -2.3548285327        3.0047567976       -0.0928203951
 C          0.1220640871        3.4542611853        2.0626414983
 C         -3.8674330904        2.1535544163       -2.2746133278
 C          2.0997892120        0.2773261707       -1.1381333926
 C         -0.0399398619       -0.6973467733       -3.5049714725
 C          1.8832250749       -0.7015364532        3.3266487139
 C         -2.2251000511       -0.2870707277        1.6869092813
 C          2.4592301571        1.6414894971        3.5211641272
 C         -2.5944518706        1.9751495475        0.9066121476
 C          0.8004361703        3.2149814537        0.7980739238
 C         -3.2740872381        0.8290864691       -2.3836238294
 C          1.7779528201        1.6491487419       -0.7692202486
 C         -1.3818403201       -0.5692509399       -2.9520075515
 C          3.7640472611        0.1845797899        2.1386818035
 C         -3.6281484168        1.2085075974        2.9241358338
 C          1.8088395966        4.0001335000       -1.2250646747
 C         -3.2540387573       -1.4871720139       -1.7747001517
 C          0.0163864424       -3.8911391332        3.2541432634
 C         -1.0891913727       -3.7744510939        2.1731817929
 C          0.6622751788        4.5361566794        4.9088312744
 C         -0.5138403318        4.7259247512        3.8946417956
 C         -2.8352815408        4.9518470235       -1.2565286734
 C         -3.7649092423        4.4742530333       -2.4210500393
 C          2.9533056302       -1.3618651105       -2.5697427078
 C          2.0291889403       -1.7449222473       -3.7545678396
 Br         5.2281053097       -0.0685157405        0.9371250280
 Br        -4.7384138417        1.5548336393        4.4403182980
 Br         2.2691350982        5.4508276313       -2.3804400330
 Br        -4.1078733141       -2.9740006970       -0.9304880831
 N          0.9923707136       -2.8799113077        2.9819045883
 N         -1.7405831699       -2.5168079531        2.3549866833
 N          1.1264311001        3.2042106161        4.7175724177
 N         -3.0411236973        4.0655543939       -0.1563702493
 N          0.0346690115        4.6043779926        2.5819313695
 N         -3.3069932874        3.1733477685       -2.7727609258
 N          2.6755830452       -0.0043997054       -2.2242665616
 N          0.6805437595       -1.7086948081       -3.2759825439
 H         -0.8103329586       -6.2985234156        4.3482073189
 H          0.1360115277       -7.3475741813        3.2879191903
 H         -2.1959828606       -7.0408752775        2.4393152434
 H         -1.0022269896       -6.4062215022        1.3032740446
 H          0.2583697646        6.8759803282        6.3336337921
 H         -0.8613076570        6.2064465800        7.5248368739
 H         -2.4214187755        5.5475003553        5.7234828930
 H         -2.0768318662        7.2771902546        5.6244262844
 H         -2.0334993251        7.3384166786       -2.4029212435
 H         -3.3396872311        8.3342750868       -1.7528819749
 H         -3.8633177963        7.5199199568       -4.0549686501
 H         -5.0186859401        6.9029906086       -2.8694777933
 H          5.7790413372       -2.9361284629       -3.7936518302
 H          4.5894963165       -3.5958141397       -2.6674918590
 H          4.0365323906       -4.2816510608       -4.9794515011
 H          4.0159120448       -2.5915733930       -5.4928383207
 H          1.4384924775       -5.3316544496        3.9583847327
 H          1.1686787986       -5.3633950433        2.2133872840
 H         -2.8733336059       -4.8048250317        1.5794532021
 H         -2.6009538801       -4.7598155175        3.3233722513
 H         -0.5842590626        3.9438255082        6.5424632528
 H          0.9799958851        4.6076155112        7.0243966150
 H         -0.4002344181        6.8606620365        3.8404803539
 H         -1.9726277450        6.2014499698        3.3792260779
 H         -4.2104633595        6.3908633363       -0.4746004315
 H         -2.5206958411        6.6972277550       -0.0622254532
 H         -2.6070306318        5.3811904033       -3.9734541748
 H         -4.2965070064        5.0927547262       -4.4001833534
 H          4.6014159835       -0.7527266544       -3.7916698418
 H          5.0506951386       -1.2163739305       -2.1483079178
 H          2.1437907488       -3.8570235979       -3.4331410302
 H          1.7087502743       -3.3968725526       -5.0816991769
 H          0.8281084464        0.7296217955        4.5414089158
 H         -1.3663682098        0.5369638042       -0.0973658087
 H          0.8389968294        1.0925996869        1.0770014525
 H         -1.5627617916        1.5190189451       -3.4455135430
 H          3.1256662791       -1.8698397507        2.0347283003
 H         -3.2119856263       -0.8258701978        3.5039833408
 H          4.1642287357        2.2780450762        2.3726923653
 H         -3.8838068253        3.1869983688        2.1042418782
 H          0.9214020856        5.2809205200        0.2661706775
 H         -4.8619155469       -0.1474991243       -1.3082734757
 H          2.6386990592        2.4988429585       -2.5309687931
 H         -1.4975744261       -2.6092964270       -2.3173972839
 H          0.2562107289       -1.6097022074        4.4432323094
 H         -0.9949462615       -1.7084991262        0.5974352616
 H          2.7341638205        3.7992182738        3.5509146088
 H         -1.5376973658        2.7918785364       -0.7976291926
 H         -0.3023230714        2.5601687799        2.5426205883
 H         -4.7965613442        2.2197922347       -1.6898916593
 H          1.8101671113       -0.4919995164       -0.4047146816
 H          0.3129184463        0.1552566119       -4.1015845865
 H         -0.4652352620       -3.7395646104        4.2350373580
 H         -0.6067006222       -3.8485217852        1.1826387686
 H          1.4335205675        5.2872083463        4.6645578657
 H         -1.2433367002        3.9267132188        4.1054456773
 H         -1.8015911537        4.8944088034       -1.6354158927
 H         -4.7990402299        4.4639190132       -2.0351310457
 H          2.7384204672       -2.0507702274       -1.7338314445
 H          2.1978465567       -1.0056736634       -4.5558673555
 C          4.0497112415      -14.3467569731       -6.7770187610
 C          5.3982788661      -13.6794732002       -6.4991148237
 O          2.9856823966      -13.4450989250       -6.5220404960
 C          3.1297964548      -12.2692839255       -7.3010753831
 C          4.4783346479      -11.6019807399       -7.0230243225
 O          5.5424374161      -12.5035428751       -7.2779525105
 H          3.8925395402      -15.1989025693       -6.1156515287
 H          5.4692332235      -13.4242124545       -5.4318747497
 H          3.0589507990      -12.5246693394       -8.3682838686
 H          4.5173510010      -11.2748554604       -5.9739144393
 H          6.2228696340      -14.3345970815       -6.7803194595
 H          2.3050451541      -11.6143023045       -7.0199648622
 H          4.6355966401      -10.7498566673       -7.6844114026
 H          4.0105696005      -14.6740942456       -7.8260686929