142
-211.12766459
 C          6.3876478840       -1.0195139263       -4.7026778559
 C          5.8549550280       -2.2928163503       -5.3518777777
 C         -2.8888487700        4.5760162356        4.6775663487
 C         -1.8164773428        5.5577642401        5.1390054928
 C         -6.4456024693        0.1613789946       -2.4669458076
 C         -5.9822102635        1.4756645855       -1.8464971804
 C          6.8245514475       -3.9436054480        3.6789172954
 C          5.8278386748       -4.9519761175        3.1166037620
 C          5.2387682069       -0.0854445539       -4.3422878192
 C          4.8694224931       -2.9905864367       -4.4214872930
 C         -2.6910833507        4.2225745536        3.2077457701
 C         -0.4262691085        4.9741544009        4.9131980243
 C         -5.2518342746       -0.7374613810       -2.7694599102
 C         -5.1739530333        1.2125626235       -0.5807272938
 C          6.6502656977       -2.5902175230        2.9995599427
 C          4.4018660210       -4.4446280271        3.2937648801
 C          1.1899007259        1.4262463242       -0.4224670057
 C         -0.6196569608       -2.7192103304       -2.1449676159
 C          3.1616026538        2.2090291112        2.5914067007
 C          0.0427637374       -1.2060613569        1.1522324597
 C          0.9060073352        1.8077252642       -2.7822163715
 C          1.1797796034       -4.0268579988       -1.2214622624
 C         -0.5877975169        2.8553281826       -1.1953216018
 C         -1.0003918938       -4.0589753859       -0.1799914872
 C          3.5097820904        3.5714584334        0.6356471393
 C         -1.7474120399       -0.6609213865        2.6680833634
 C          4.8071293081        1.5589522646        0.9569497647
 C          0.3033474286       -1.6296639220        3.5072884819
 C          2.7492012138        0.3471474011       -1.9980617127
 C          1.6064938158       -2.5804087556       -3.1897498610
 C         -0.2948857432        2.4678229425        1.2370373443
 C         -2.8087807799       -2.5983170603       -0.9993640144
 C          1.7034396919        4.1705809828        2.1996056375
 C         -2.0184200820       -0.2284011827        0.2398140604
 C          4.3968020316        0.1005692914        2.9178123942
 C          2.1485868596       -2.2051844312        1.9544993006
 C          1.6034006140        1.2063913153       -1.7329085934
 C          0.7071627454       -3.1315110688       -2.1846494911
 C          0.0984360305        2.2457299151       -0.1457634209
 C         -1.4741016893       -3.1617505799       -1.1362492158
 C          2.8309012153        3.3285347405        1.8290197955
 C         -1.2344160612       -0.6960672006        1.3720480889
 C          4.1321299743        1.3141833300        2.1558594727
 C          0.8153291765       -1.6771045677        2.2093666285
 C         -0.1758882377        2.6172181133       -2.4936329995
 C          0.3156090678       -4.4813790623       -0.2461358673
 C          4.4916469318        2.6865532965        0.2266934675
 C         -0.9654543539       -1.1219276666        3.7112533691
 C          4.2503448077       -0.7720851789       -3.3975107525
 C          3.7086015090       -2.0653333890       -4.0589826384
 C         -1.3077683570        3.6249439243        2.9717268750
 C         -0.2076294504        4.6331063158        3.4414452929
 C         -4.4424375099       -1.0215464570       -1.5067507037
 C         -3.9660323157        0.3313103463       -0.8814172909
 C          5.2250924839       -2.0667626070        3.1743662577
 C          4.2114099838       -3.0920283126        2.6044250344
 Br        -1.1413833229        3.4248502018       -3.9310945277
 Br         0.9607984091       -5.7000420622        1.0764983712
 Br         5.4082776814        3.0198020571       -1.4162435127
 Br        -1.6592144321       -1.0431950621        5.4900372850
 N          3.1403380355        0.0973822250       -3.1707310792
 N          2.8593883536       -2.7124758695       -3.1053591788
 N         -1.0974853558        3.3833400207        1.5799914141
 N         -3.2571518252       -1.7449759466       -1.8198036722
 N          1.0361775691        3.9657356629        3.2554666473
 N         -3.2559493662        0.0222738816        0.3184262518
 N          5.0697227097       -0.8518334599        2.4336957614
 N          2.8983258680       -2.6061163159        2.8859347913
 H          6.9450462865       -1.2755695365       -3.7990019149
 H          7.0685065078       -0.5073515154       -5.3842543308
 H          6.6795355072       -2.9697917419       -5.5814409048
 H          5.3540336698       -2.0412739681       -6.2893468468
 H         -2.8330243255        3.6664464272        5.2798776827
 H         -3.8793019620        5.0121780255        4.8166098782
 H         -1.9130146998        6.4920228582        4.5810670465
 H         -1.9472011595        5.7828955994        6.1986615587
 H         -7.1198820997       -0.3505367213       -1.7766041024
 H         -6.9920470531        0.3575494603       -3.3905229248
 H         -6.8442819436        2.0993311906       -1.6049583177
 H         -5.3634506623        2.0186177247       -2.5644510447
 H          7.8448202376       -4.2987537671        3.5243486899
 H          6.6645979773       -3.8342013548        4.7538560304
 H          5.9355471492       -5.9106116332        3.6263858594
 H          6.0280700422       -5.1106746513        2.0546894530
 H          5.6162574576        0.8166224165       -3.8570695656
 H          4.7000698606        0.2168706418       -5.2416578856
 H          4.4657490199       -3.8873834520       -4.8959918805
 H          5.3693263838       -3.2933050462       -3.4998367365
 H         -2.7947021251        5.1126348384        2.5850212908
 H         -3.4404380126        3.4966712358        2.8870553712
 H         -0.2974174034        4.0641194586        5.5013823721
 H          0.3410100601        5.6871305536        5.2219945168
 H         -4.5950791333       -0.2613753629       -3.4993388298
 H         -5.5878671409       -1.6884310360       -3.1878410156
 H         -5.7904707580        0.7130062213        0.1682280642
 H         -4.8190872002        2.1522215285       -0.1538379732
 H          6.8569286425       -2.6746638492        1.9312946199
 H          7.3442421339       -1.8595116484        3.4200857902
 H          4.1715355995       -4.3249165710        4.3535096750
 H          3.6874277638       -5.1544046122        2.8724861619
 H          1.7263334468        0.9640978199        0.3940755893
 H         -1.0061314204       -2.0236993960       -2.8737082530
 H          2.6228264743        2.0384418265        3.5105704062
 H          0.4326603850       -1.2429548452        0.1448842315
 H          1.2310458398        1.6290378150       -3.7944559026
 H          2.2104336887       -4.3411758955       -1.2599968060
 H         -1.4278762554        3.4927439218       -0.9711891386
 H         -1.6495480821       -4.4096688418        0.6081722927
 H          3.2637360315        4.4333704213        0.0338646585
 H         -2.7390617158       -0.2693147914        2.8282671370
 H          5.5584499158        0.8592473972        0.6276366824
 H          0.9092747568       -1.9949176425        4.3207312056
 H          3.2487414253       -0.0651094807       -1.1068226660
 H          1.1265452818       -2.0146521095       -4.0002382384
 H          0.1652086072        1.7871626230        1.9685045273
 H         -3.3771355952       -2.9157262275       -0.1128752812
 H          1.4343971257        4.9573300070        1.4795118411
 H         -1.4576878054       -0.1162845231       -0.6999025635
 H          3.9463137376        0.0564931335        3.9189907118
 H          2.4536386205       -2.2309867654        0.8961645147
 H          4.7497903350       -1.0548373989       -2.4539217585
 H          3.1518126651       -1.7647387824       -4.9626976540
 H         -1.1695496549        2.7081079491        3.5680128051
 H         -0.2953935361        5.5350356591        2.8109010001
 H         -5.0586355856       -1.5365741420       -0.7494715022
 H         -3.3095087197        0.8083058085       -1.6275521703
 H          4.9877654172       -1.9271834245        4.2426259203
 H          4.3918054894       -3.1822769795        1.5185533393
 C        -13.0629142519        1.9562042171       -4.2032717194
 C        -13.3965285512        0.5182213460       -4.6057879190
 O        -12.2645130886        1.9732593113       -3.0319118728
 C        -11.0775825685        1.2220925218       -3.2250153039
 C        -11.4115266292       -0.2160330095       -3.6266263265
 O        -12.2099337178       -0.2335413950       -4.7982285195
 H        -13.9683903245        2.5138883185       -3.9637382714
 H        -14.0059037104        0.0483563282       -3.8201415683
 H        -10.4693928804        1.6919814560       -4.0114013407
 H        -11.9522206245       -0.7106337860       -2.8066724560
 H        -13.9310930189        0.4931870396       -5.5554539045
 H        -10.5432800213        1.2479976275       -2.2753895015
 H        -10.5071220004       -0.7752336036       -3.8663032082
 H        -12.5230414795        2.4517465528       -5.0231487762