142
-211.12705125
 C          3.1192108765       -3.6294679142        7.7439445292
 C          4.5735812026       -3.5748489775        7.2854818499
 C         -7.5109013524        0.4174805381        2.6882377565
 C         -7.8369573251       -0.9204170489        2.0348723721
 C          4.4556978448        6.8541226415       -0.3993831367
 C          2.9701199473        7.1684098979       -0.2503424679
 C         -1.2127135378        1.0631672790       -8.8400263279
 C          0.2915023196        1.2112654751       -8.6343863314
 C          2.3624632781       -2.3882433589        7.2831842863
 C          4.6532187361       -3.4240554517        5.7699746608
 C         -6.0491541398        0.4491556562        3.1157540131
 C         -6.9250507047       -1.1550006090        0.8374414614
 C          4.7800350834        5.4927117442        0.2065011058
 C          2.1223644065        6.0752840371       -0.8923906501
 C         -1.7627904327       -0.0572863550       -7.9647219271
 C          0.6050237921        1.4763615314       -7.1662219693
 C         -1.1014530547        0.0420021523        3.4491982280
 C          4.1747758844        0.5296752935        1.3786818769
 C         -3.2070627747       -1.5492888281       -2.3812683606
 C          0.7848395698        1.2240913491       -2.1228437877
 C          0.8032937247        1.3374158598        4.1548100595
 C          3.7713900255       -1.8258344806        1.0603736368
 C         -0.9891562701        2.3931219276        2.9247012522
 C          3.7931922562       -0.3310921754       -0.8370926346
 C         -2.9019917197       -3.8523049107       -1.7446940077
 C          0.5920738550        0.3706934085        0.1222036106
 C         -2.1651054302       -3.0887990263       -3.9141437227
 C          0.2040087698       -1.0870933651       -1.7607127819
 C          0.7682601870       -1.0959282834        4.5956997469
 C          4.1187798930       -0.9465184948        3.3498346742
 C         -2.9949568260        1.1401818402        2.2692960245
 C          4.0681936751        2.0893970768       -0.5521606104
 C         -4.0561372323       -2.3386468063       -0.1855365661
 C          1.3767948488        2.6694976775       -0.1889474383
 C         -2.3630310506       -0.7060425135       -4.5424298505
 C          0.3966813580       -0.2735141341       -4.0685641365
 C          0.1406571731        0.1101258726        4.0717451666
 C          4.0363445617       -0.7482196993        1.9099113029
 C         -1.6740180137        1.1786063888        2.8821002317
 C          4.0464733783        0.7479988438        0.0090016764
 C         -3.3683816698       -2.5718843167       -1.4483793089
 C          0.8756305511        1.4247899109       -0.7481675529
 C         -2.6026511431       -1.7968240470       -3.6087691370
 C          0.4657738006       -0.0298327946       -2.6335088605
 C          0.2293029728        2.4515471503        3.5770718900
 C          3.6590362789       -1.5964253632       -0.2951554375
 C         -2.3173086235       -4.0897877300       -2.9763888045
 C          0.2460720894       -0.8597126754       -0.3993865008
 C          2.4268993935       -2.2560955767        5.7596068127
 C          3.9071926333       -2.1707379189        5.3165084165
 C         -5.1101364783        0.2136122759        1.9234810440
 C         -5.4449455069       -1.1248763121        1.2456890448
 C          3.9491714800        4.3971779888       -0.4537016220
 C          2.4298401668        4.7219787982       -0.2607946358
 C         -1.4706125821        0.2058569990       -6.4893144969
 C          0.0702991002        0.3545713415       -6.2803689252
 Br         1.1488137765        4.1256789133        3.6738303918
 Br         3.2725772812       -3.0564876479       -1.4682319678
 Br        -1.6993602014       -5.8563897090       -3.3868970384
 Br        -0.1435849385       -2.2920253982        0.7908920742
 N          1.7865293477       -1.0475391802        5.3398557450
 N          3.9208279622       -2.0705742652        3.8889511796
 N         -3.7741820537        0.1612925677        2.4363396149
 N          4.1836191847        3.1305835439        0.1592238604
 N         -4.6707173679       -1.2608327621        0.0477427961
 N          1.7030933906        3.6694016350       -0.8930948545
 N         -1.8774910447       -0.9037319589       -5.6937749598
 N          0.2814659461        0.6697059275       -4.9031094220
 H          2.6406893298       -4.5192233365        7.3286726381
 H          3.0735947412       -3.6987874351        8.8322916502
 H          5.0940427382       -4.4847537407        7.5892022434
 H          5.0725848728       -2.7268936753        7.7603276064
 H         -7.7031412889        1.2261756038        1.9794084722
 H         -8.1466532339        0.5751130693        3.5612895013
 H         -7.6999574968       -1.7241040802        2.7615071131
 H         -8.8775494745       -0.9351340852        1.7059241522
 H          4.7227984972        6.8517122008       -1.4588244504
 H          5.0501953859        7.6234845760        0.0959523827
 H          2.7436651012        8.1282767843       -0.7177978243
 H          2.7192102419        7.2403633585        0.8103430302
 H         -1.4272890488        0.8445703319       -9.8874684713
 H         -1.7092821922        2.0016294796       -8.5828022471
 H          0.6727796386        2.0332542871       -9.2426950761
 H          0.7938668072        0.2950684877       -8.9529292101
 H          1.3147907765       -2.4457653994        7.5866198703
 H          2.7948570218       -1.4913498217        7.7301857521
 H          5.6941034472       -3.3509526015        5.4483938122
 H          4.2084212109       -4.2899985604        5.2771276063
 H         -5.8575533041       -0.3274785602        3.8585677101
 H         -5.8017412962        1.4129693053        3.5668750574
 H         -7.0876043728       -0.3826707911        0.0830124225
 H         -7.1385489203       -2.1224343847        0.3776187776
 H          4.5672202838        5.4921334512        1.2765374145
 H          5.8378421975        5.2585129360        0.0711904419
 H          2.3194321956        6.0166979948       -1.9640397023
 H          1.0612738866        6.2909052891       -0.7543915106
 H         -1.3109165576       -1.0111466912       -8.2413340373
 H         -2.8433091255       -0.1464478979       -8.0947212473
 H          0.1518457794        2.4153847835       -6.8444590834
 H          1.6835153903        1.5541916047       -7.0156374290
 H         -1.6403135712       -0.8902944439        3.3908312507
 H          4.3681878159        1.3793224674        2.0148836786
 H         -3.5652046174       -0.5635898544       -2.1290089003
 H          0.9929006471        2.0392219606       -2.7959602052
 H          1.7551927291        1.3826548435        4.6585938520
 H          3.6507636982       -2.8091980337        1.4855359502
 H         -1.4136217847        3.2671492856        2.4537300575
 H          3.6847811941       -0.1757133732       -1.8999932290
 H         -3.0025244989       -4.6497466677       -1.0244769103
 H          0.6568002143        0.5121533135        1.1904091100
 H         -1.7095009972       -3.2736577560       -4.8736077257
 H         -0.0294632977       -2.0675378998       -2.1457664464
 H          0.3120881826       -2.0432966503        4.2770301754
 H          4.3411664934       -0.0453366706        3.9386157242
 H         -3.2753546071        2.0339801015        1.6959999002
 H          3.9283232866        2.1437224326       -1.6421205599
 H         -4.0412519705       -3.1733404555        0.5293146309
 H          1.5101258393        2.6640694931        0.9023574909
 H         -2.6049169839        0.3007833794       -4.1709376360
 H          0.4408971883       -1.3286771460       -4.3718857451
 H          1.9697227216       -3.1425738657        5.2862979963
 H          4.3414171723       -1.2718373216        5.7883604923
 H         -5.2344315055        1.0262962254        1.1863513157
 H         -5.2380958952       -1.9388579497        1.9618523586
 H          4.1358958249        4.3650050871       -1.5410100807
 H          2.2450508354        4.7520729366        0.8252025267
 H         -1.9403068114        1.1488095839       -6.1584098156
 H          0.5242001067       -0.6122154204       -6.5542247005
 C         -4.6901345726        5.4708312627       -0.0424972813
 C         -3.2850484630        5.3959722123        0.5562522431
 O         -4.6799888298        5.0441376050       -1.3940250020
 C         -4.1616019726        3.7308432705       -1.5020494279
 C         -2.7568055482        3.6544271893       -0.9023797527
 O         -2.7707547305        4.0763532454        0.4517678987
 H         -5.0554375448        6.4975926361       -0.0489922867
 H         -2.6187533757        6.0896595016        0.0253547168
 H         -4.8260591652        3.0271175019       -0.9792046379
 H         -2.0734378867        4.2934200747       -1.4780126350
 H         -3.3018182845        5.6373024931        1.6194419111
 H         -4.1411239082        3.4965853531       -2.5663129586
 H         -2.3867770608        2.6288021070       -0.9015539885
 H         -5.3737247198        4.8349111270        0.5391641156