142
-211.13237158
 C          1.4652276518       -7.1864651839        2.0656218977
 C          1.0375101010       -7.2714060154        0.6040937622
 C         -5.1356683416        3.6005187653        4.7375137370
 C         -5.7205454697        3.5253162432        3.3307730530
 C         -3.9511824473        5.3076597762       -4.1588604826
 C         -4.0035024077        4.7603517393       -5.5817237405
 C          6.9441858890       -1.0963800895       -1.4740507856
 C          6.8909853356       -1.5712937657       -2.9226031549
 C          1.8975003769       -5.7657102715        2.4092709903
 C         -0.0922599243       -6.2880358167        0.3236349516
 C         -3.9956380058        2.6006759813        4.8951400478
 C         -4.6377944439        3.7841010916        2.2891295232
 C         -4.1948799623        4.1913617586       -3.1494305629
 C         -2.9802498502        3.6447096385       -5.7623442317
 C          5.9182925569        0.0053807009       -1.2372479649
 C          5.4897971790       -2.0613942151       -3.2696143248
 C         -0.0293424801       -0.2281920395        3.4273725740
 C         -1.6426973891       -0.8376389041       -1.0859526232
 C          0.4243811189        1.3690650225        0.1471219473
 C         -0.0836524861       -0.2988563297       -4.3822168433
 C          2.2203333815       -0.8062488798        2.7935054462
 C         -3.0507689653       -2.2941559691        0.2143210256
 C          1.6428261846        1.4948072592        3.2425101140
 C         -3.9398314138       -0.2340253483       -0.6865638034
 C         -0.2844621008        3.6260619351       -0.3027984749
 C         -1.7743335786       -2.0036233423       -4.1918430347
 C          1.7965538637        2.8006820367       -1.2173866055
 C          0.5414199207       -2.5392187481       -3.7569099322
 C          0.4930304097       -2.5785344939        2.8981924822
 C         -0.6909504974       -2.9309741826       -0.1950910704
 C         -0.6869529339        2.1383996867        3.7205620566
 C         -2.4948943154        1.2639390152       -2.0348895536
 C         -1.6961895986        2.1542965180        1.1097709465
 C         -2.4639963284        0.3161972691       -4.6571103124
 C          2.5453179126        0.4846834654       -0.7441517186
 C          2.2760601928       -0.7700109105       -3.8573195044
 C          0.9031585321       -1.1901235254        3.0581348238
 C         -1.8094220293       -2.0124685363       -0.3590299282
 C          0.3263491331        1.1176509656        3.5013197993
 C         -2.6986125868        0.0550566495       -1.2523278222
 C         -0.5100441423        2.3899411085        0.3014025080
 C         -1.4230260556       -0.6793467665       -4.4503465506
 C          1.5801652300        1.5661875050       -0.6024664079
 C          0.8980402938       -1.2140750617       -4.0205723960
 C          2.5672517938        0.5231890675        2.9079087169
 C         -4.0898573447       -1.4001362807        0.0410916288
 C          0.8598766828        3.8039519882       -1.0583960834
 C         -0.7838183093       -2.9105914224       -3.8589217691
 C          0.7726449796       -4.7677232223        2.1378150286
 C          0.3313776985       -4.8553744418        0.6538040288
 C         -2.8943175697        2.8585803674        3.8700361751
 C         -3.4963170676        2.7821179154        2.4283719816
 C         -3.1657560846        3.0774546869       -3.3113370340
 C         -3.2236303747        2.5115176459       -4.7690224127
 C          4.5063970538       -0.4813611579       -1.5702756669
 C          4.4531093591       -0.9618866843       -3.0431312685
 Br         4.3590212361        1.0402518421        2.5595819550
 Br        -5.7840003912       -1.7794854350        0.8388424244
 Br         1.1458877034        5.4860791129       -1.9171451898
 Br        -1.2753845707       -4.7200795754       -3.4920754932
 N          1.2504532704       -3.4375133439        2.3654484806
 N         -0.7904653910       -3.9883125325        0.4851247080
 N         -1.8994730261        1.8414659192        3.9297153102
 N         -3.4503242512        1.9971200559       -2.4222465440
 N         -2.4447902227        3.0907900283        1.5125651733
 N         -2.1889684565        1.5369934093       -4.8480247308
 N          3.5932396831        0.6081701745       -1.4346276094
 N          3.1405993044       -1.4839474155       -3.2766260648
 H          0.6302882772       -7.4777741670        2.7067581534
 H          2.2916110035       -7.8735365574        2.2551269548
 H          0.7018229066       -8.2825969568        0.3691820020
 H          1.8888996999       -7.0407136123       -0.0399574769
 H         -4.7615344794        4.6099554020        4.9232516685
 H         -5.9099302479        3.3866158408        5.4760365545
 H         -6.1507556706        2.5345245497        3.1680979547
 H         -6.5176547017        4.2617716428        3.2176215212
 H         -2.9710216721        5.7539921209       -3.9763361860
 H         -4.7052677192        6.0856704528       -4.0299882800
 H         -3.7988920945        5.5587828826       -6.2967322024
 H         -5.0039114469        4.3720566077       -5.7863985899
 H          7.9401584601       -0.7177638910       -1.2396761709
 H          6.7369698617       -1.9355193102       -0.8064686317
 H          7.6074646505       -2.3795024328       -3.0788466554
 H          7.1621886955       -0.7471578819       -3.5861045594
 H          2.1788049121       -5.6960693361        3.4621080864
 H          2.7632216077       -5.4792238245        1.8097461507
 H         -0.3860857768       -6.3310610386       -0.7268300090
 H         -0.9670237192       -6.5342764813        0.9274568599
 H         -4.3632188775        1.5824588791        4.7577316901
 H         -3.5623273209        2.6709117160        5.8950105961
 H         -4.2313906168        4.7902015795        2.4044474281
 H         -5.0505864104        3.6995948741        1.2822071134
 H         -5.1905090784        3.7658804205       -3.2850648011
 H         -4.1290378366        4.5779397674       -2.1308445092
 H         -1.9705343072        4.0284847117       -5.6076516225
 H         -3.0353099776        3.2374381946       -6.7740039979
 H          6.1397862124        0.8700643970       -1.8645345572
 H          5.9380255308        0.3309561492       -0.1955155030
 H          5.2245202194       -2.9182509892       -2.6479701522
 H          5.4427891633       -2.3757741318       -4.3142661557
 H         -1.0533361292       -0.4992104452        3.6334053393
 H         -0.6853140336       -0.6165405149       -1.5362081661
 H          0.2510541398        0.4155927039        0.6257025681
 H          0.1661695061        0.7311584176       -4.5843288552
 H          2.9365178502       -1.5593139115        2.5049248963
 H         -3.1707049556       -3.2065374143        0.7759468838
 H          1.9330145219        2.5333813765        3.2968894247
 H         -4.7523761246        0.4610314597       -0.8247820146
 H         -1.0102798268        4.4125402409       -0.1728472052
 H         -2.8075156769       -2.3132727017       -4.2394049773
 H          2.6926784729        2.9436091773       -1.7994210026
 H          1.3093298638       -3.2422832842       -3.4766078204
 H         -0.5219963654       -2.8198114742        3.2429580251
 H          0.2411121079       -2.6397931892       -0.7052086721
 H         -0.3451026914        3.1808410834        3.6373118645
 H         -1.4464326185        1.4920240190       -2.2770528263
 H         -1.8905803443        1.1002940037        1.3576282612
 H         -3.4993664209       -0.0466876275       -4.5789115843
 H          2.2975276318       -0.4439163974       -0.2050380660
 H          2.5006922248        0.2366194431       -4.2361240798
 H         -0.1112260290       -4.9956078432        2.7571919780
 H          1.1862147375       -4.5492583104        0.0250166167
 H         -2.4666731373        3.8684933518        3.9967621662
 H         -3.8613466845        1.7505213615        2.2944538320
 H         -2.1436751977        3.4636048307       -3.1644101663
 H         -4.2251255001        2.0697287792       -4.9119267926
 H          4.2283930784       -1.3323336666       -0.9235389716
 H          4.6638923808       -0.0882394694       -3.6827979194
 C          5.5905502368        0.8693600077        6.4914574904
 C          4.0806827399        1.1100457421        6.5362383727
 O          5.8883262047       -0.4758504747        6.8247832063
 C          5.2213844451       -1.3632971576        5.9447835097
 C          3.7107161065       -1.1283220223        5.9947807350
 O          3.4058298955        0.2169870911        5.6628443737
 H          6.1038881790        1.4881409067        7.2272503615
 H          3.7114082280        0.9648045969        7.5613047495
 H          5.5855206126       -1.2055479961        4.9196500588
 H          3.3354586645       -1.3483167987        7.0043172681
 H          3.8377569378        2.1159825794        6.1939821218
 H          5.4693251959       -2.3709402191        6.2782598143
 H          3.1918580685       -1.7490529448        5.2638367486
 H          5.9682528739        1.0915688220        5.4833756271