142
-211.12669978
 C         -0.0359543321       -5.9452309746        3.1311040832
 C          1.3180673664       -6.4845942857        2.6816677459
 C         -1.3054563278        8.0462688092        0.1728355692
 C         -2.7867010956        7.9851014002        0.5314560003
 C          6.9536508701        5.0775490636        1.9682296179
 C          5.6523545320        5.6964553713        2.4681250968
 C         -3.2979413084       -3.5169791368       -5.2338857833
 C         -1.8118716891       -3.5609727010       -5.5742802207
 C          0.0771027261       -4.4724492945        3.5054612795
 C          1.8475464183       -5.6736310363        1.5045985526
 C         -0.5195981475        7.0173198946        0.9776433942
 C         -3.3365795140        6.5848221333        0.2853218163
 C          6.7376929875        3.6162753549        1.5915891095
 C          4.5640201630        5.5763088751        1.4074027297
 C         -3.4965978080       -3.0883101281       -3.7846782532
 C         -1.1706084454       -2.2008226182       -5.3279311486
 C          0.0722466126        1.0823466122        1.6683821175
 C          4.2176478785       -0.4521283104       -0.0872242908
 C         -3.2430139441        1.5240185842       -0.0336790605
 C          1.2904382399        1.4556327482       -1.4835365050
 C          1.2340729873        0.3607370197        3.6495275940
 C          3.1660516120       -2.0004821628       -1.6027909863
 C          0.9269119305        2.7191030296        3.2148645316
 C          4.1346185865        0.0484215772       -2.4417947343
 C         -3.1757788778        0.9561520098        2.3059414625
 C          1.4895760773        3.7543886556       -2.1740252696
 C         -3.2254698877       -0.7894421096        0.6352850504
 C          0.1392781581        2.2131349131       -3.4573903261
 C          0.3430509564       -1.3348435302        2.0775861491
 C          3.1808680623       -2.4913387825        0.8278145337
 C         -0.2799216820        3.4680351177        1.1827685918
 C          5.0668734813        1.7266415639       -0.8953815903
 C         -3.0252434872        3.3270631720        1.6455225383
 C          2.6849254949        2.9766173666       -0.1453157488
 C         -3.2176257025       -0.2155407968       -1.7775689496
 C         -0.0571803168       -0.1598647549       -2.7706474031
 C          0.5510402426        0.0517763817        2.4717781973
 C          3.5399755218       -1.6463109104       -0.3036188069
 C          0.2549240074        2.4143854769        2.0316853256
 C          4.5025091788        0.4087653918       -1.1461546808
 C         -3.1894591807        1.9225627202        1.3011460900
 C          1.8056095946        2.7332362657       -1.2786191971
 C         -3.2459519024        0.1764902107       -0.3744907264
 C          0.4642501028        1.1852618881       -2.5702674378
 C          1.4110329189        1.6863461103        3.9963857763
 C          3.4797830102       -1.1533851933       -2.6462491217
 C         -3.2023899648       -0.3818601161        1.9537206022
 C          0.6554795500        3.4763492457       -3.2411729649
 C          0.5976890606       -3.6446795326        2.3289758961
 C          1.9726793942       -4.1946995760        1.8681445843
 C         -1.0516086791        5.6087375912        0.7335380272
 C         -2.5718110479        5.5434852391        1.0983849779
 C          5.6622958625        3.4787540991        0.5168497777
 C          4.3287022743        4.1180109464        1.0270648610
 C         -2.8643483477       -1.7218282258       -3.5238035652
 C         -1.3540391464       -1.7612436037       -3.8741324513
 Br         2.3628211389        2.1088420898        5.5986166966
 Br         2.9675839875       -1.6336167657       -4.4235971389
 Br        -3.1721146965       -1.7001704295        3.3368623270
 Br         0.1949682443        4.8869991676       -4.4451835810
 N          0.7926926424       -2.2968138373        2.7581173224
 N          2.3680684056       -3.4506282137        0.7109441667
 N         -0.3751885183        4.6690034044        1.5685055976
 N          5.3661283488        2.1078398372        0.2738349317
 N         -2.9955238395        4.2281801633        0.7571109299
 N          3.3814093939        4.0270452698       -0.0374886459
 N         -2.9751594782       -1.4027601627       -2.1327122104
 N         -0.8387149971       -0.4383937630       -3.7205188794
 H         -0.7618062921       -6.0603374368        2.3232215051
 H         -0.3981832604       -6.5095897636        3.9917720917
 H          1.2260474717       -7.5318733733        2.3890659824
 H          2.0265118038       -6.4268840019        3.5110529142
 H         -1.1805626522        7.8453105504       -0.8935687767
 H         -0.9124796166        9.0436421486        0.3762441978
 H         -2.9184096524        8.2474103567        1.5837157291
 H         -3.3465034450        8.7046432169       -0.0681208072
 H          7.3081101826        5.6294574951        1.0946308680
 H          7.7200245519        5.1427693569        2.7421942729
 H          5.8080236459        6.7486191778        2.7116172509
 H          5.3311238332        5.1834339827        3.3774231619
 H         -3.7470761856       -4.4996986490       -5.3868885374
 H         -3.8021999561       -2.8087064044       -5.8951001724
 H         -1.6740955048       -3.8408280619       -6.6198152368
 H         -1.3172630922       -4.3133088188       -4.9560989227
 H         -0.8956882252       -4.0776288851        3.8046948020
 H          0.7642118790       -4.3465627034        4.3436311061
 H          2.8288557334       -6.0414376035        1.1977943025
 H          1.1729017608       -5.7622319683        0.6514056373
 H         -0.5911717315        7.2336761824        2.0447927255
 H          0.5350704130        7.0409742265        0.6977085000
 H         -3.2534204565        6.3259929497       -0.7715067143
 H         -4.3915257270        6.5352623436        0.5628627628
 H          6.4266752137        3.0421557381        2.4659020834
 H          7.6639410075        3.1792200640        1.2128571068
 H          4.8464291149        6.1268280798        0.5085809206
 H          3.6252540370        5.9920369024        1.7776798649
 H         -3.0383290980       -3.8137710122       -3.1104196738
 H         -4.5604898367       -3.0315319953       -3.5454035343
 H         -1.6230941887       -1.4464960853       -5.9734836594
 H         -0.1018928381       -2.2357185116       -5.5479249080
 H         -0.4580266158        0.8499104817        0.7556874557
 H          4.5106398891       -0.1534303702        0.9073246012
 H         -3.2518295136        2.2883076199       -0.7952346962
 H          1.5463066233        0.6642786626       -0.7932353013
 H          1.6038092978       -0.4441983090        4.2640031599
 H          2.6393126156       -2.9279429485       -1.7609109956
 H          1.0590929115        3.7531740428        3.4897916421
 H          4.3480653001        0.7045026556       -3.2721982668
 H         -3.1340829460        1.2488446154        3.3442874909
 H          1.8978103023        4.7387086072       -2.0103228849
 H         -3.2268274259       -1.8324316314        0.3617307491
 H         -0.5041095039        1.9952885911       -4.2945266899
 H         -0.2343692218       -1.4842316596        1.1514142989
 H          3.6396146086       -2.2206908594        1.7889315137
 H         -0.6069458123        3.1448333546        0.1836174761
 H          5.1650131402        2.3843754227       -1.7713900874
 H         -2.8769499516        3.5481937031        2.7126159029
 H          2.7100779889        2.1761447953        0.6085551236
 H         -3.3911532537        0.5928107974       -2.5014137880
 H          0.2798988347       -0.9136670722       -2.0414525430
 H         -0.0973245014       -3.7073435725        1.4731859509
 H          2.6792133490       -4.0555391741        2.7038348723
 H         -0.9713365115        5.3372358306       -0.3320191636
 H         -2.6603518580        5.7441803762        2.1802032154
 H          5.9538276190        4.0134737786       -0.4038739402
 H          4.0120807669        3.5294489649        1.9038666053
 H         -3.3289504046       -0.9481911100       -4.1583154719
 H         -0.8648334461       -2.4753657252       -3.1885257948
 C         -8.8667939125      -12.0420936127       -1.0950816988
 C         -7.4506300000      -11.6478511170       -1.5195382074
 O         -8.8256760260      -13.0236529425       -0.0727471359
 C         -8.0839725028      -12.5543418100        1.0408600678
 C         -6.6676969225      -12.1609714368        0.6162821304
 O         -6.7084789880      -11.1793027904       -0.4060646537
 H         -9.4124537530      -12.4896891368       -1.9258599448
 H         -6.9429675898      -12.5185372332       -1.9593979106
 H         -8.5916627226      -11.6831426686        1.4796463589
 H         -6.1333690292      -13.0499315939        0.2509586289
 H         -7.4729671678      -10.8282043251       -2.2378590458
 H         -8.0623935609      -13.3732556756        1.7599988910
 H         -6.1215502451      -11.7138036011        1.4469342955
 H         -9.4021017735      -11.1535875375       -0.7300482902