142
-211.12683036
 C          6.1042160413       -5.3856225526        3.5787725458
 C          5.4800871375       -6.0965160935        2.3823797921
 C         -4.0653016716        2.2195077893        5.8858787354
 C         -4.7953481984        1.4890399636        4.7633419165
 C         -5.5340723664        1.3371592397       -3.0216527214
 C         -5.5996340042        0.3858952635       -4.2122794954
 C          7.4215689903        0.8241929949       -2.7057669548
 C          7.2896967625       -0.0668262832       -3.9366702176
 C          5.8977593444       -3.8795516877        3.4666621030
 C          3.9952518488       -5.7679136620        2.2849218723
 C         -2.5868038714        1.8478596346        5.8905748025
 C         -4.1602204327        1.8122037634        3.4155336320
 C         -5.0347611977        0.6047015624       -1.7812427804
 C         -4.2325014194       -0.2359370319       -4.4740873651
 C          6.0831633717        1.4725577843       -2.3731678555
 C          6.2223780874       -1.1310084600       -3.7088185475
 C          1.8966693000        0.4975983452        3.9053465944
 C         -0.1163411675       -2.0981854658        0.3555772717
 C          0.9526482861        1.0119662030        0.3706049313
 C          0.3636371425       -2.0763089801       -3.3053857755
 C          4.0000001943        0.6720895402        2.7447429387
 C         -0.4184122831       -3.4769843790        2.3054799035
 C          2.5166993551        2.5759591286        2.8575464318
 C         -2.3068740517       -2.3234775134        1.3307783463
 C         -0.7659874154        2.5715170375       -0.2725119885
 C         -0.2832133304       -4.1442675157       -2.2533526467
 C          1.2457997759        2.3651441612       -1.5984546986
 C          2.0548154803       -3.5762298432       -2.4736057315
 C          3.3342297586       -1.4973736206        3.7417945398
 C          1.8394233667       -3.2613697084        1.3057270283
 C          0.2874265228        2.3775363474        3.8881403411
 C         -2.0002420292       -0.9078131801       -0.6825834295
 C         -1.0685866634        1.1804286352        1.7591622488
 C         -2.0362627182       -2.5530690220       -2.9352959860
 C          3.0279393305        0.7729191394       -0.9380507497
 C          2.7299506356       -1.4106219459       -3.4733376891
 C          3.0829713197       -0.0867495878        3.4769722807
 C          0.4176401992       -2.9451715645        1.3220399104
 C          1.5971135022        1.8207998468        3.5842278464
 C         -1.4725674085       -1.7816200948        0.3537265666
 C         -0.2923137569        1.5924223952        0.5999307083
 C         -0.6363344358       -2.9446572633       -2.8699335628
 C          1.7287658804        1.3939987237       -0.7194508960
 C          1.7050045722       -2.3753533787       -3.0968475780
 C          3.7049423569        1.9895814096        2.4591047481
 C         -1.7620200333       -3.1550069557        2.2917976666
 C          0.0088897651        2.9326155081       -1.3593684069
 C          1.0563387386       -4.4413091550       -2.0747126263
 C          4.4119440248       -3.5343109826        3.3738986972
 C          3.7736604287       -4.2590474151        2.1609785445
 C         -1.9330438349        2.1842704767        4.5528389808
 C         -2.6828475984        1.4332066001        3.4033160694
 C         -3.6603601440       -0.0091710309       -2.0272225321
 C         -3.7285070434       -0.9886275685       -3.2454626733
 C          5.0057346410        0.4134995928       -2.1310130812
 C          4.8729120233       -0.4928888239       -3.3817813686
 Br         4.9539675052        3.0273619702        1.4522058069
 Br        -2.9027150564       -3.8716482218        3.6470585668
 Br        -0.6595428979        4.2482819100       -2.5730739824
 Br         1.5312978918       -6.0809486619       -1.2163664290
 N          4.2617016494       -2.1268631673        3.1605636503
 N          2.3711593502       -3.9908909782        2.1863476021
 N         -0.5901714354        1.7131800036        4.5131386374
 N         -3.2397663827       -0.7682246075       -0.8932187761
 N         -2.0753511716        1.8254648899        2.1719017620
 N         -2.3974702787       -1.4524148963       -3.4456502217
 N          3.7496061281        1.0629590766       -1.9308162183
 N          3.9221794232       -1.5170820819       -3.0713480231
 H          5.6422577917       -5.7485204806        4.4996273750
 H          7.1724274891       -5.6031566030        3.6290779311
 H          5.6049103049       -7.1760299278        2.4798611165
 H          5.9834897257       -5.7804328539        1.4660851780
 H         -4.1681142049        3.2981060080        5.7463373618
 H         -4.5071531101        1.9605426243        6.8493741482
 H         -4.7466706561        0.4118792236        4.9382063930
 H         -5.8465491830        1.7811755499        4.7492121192
 H         -4.8569962808        2.1627308853       -3.2522948569
 H         -6.5217316112        1.7564199744       -2.8234320484
 H         -5.9294870123        0.9237834651       -5.1024975434
 H         -6.3249028079       -0.4050344977       -4.0076241583
 H          8.1650932156        1.6026460298       -2.8835929449
 H          7.7568707979        0.2259053673       -1.8557485564
 H          8.2438825526       -0.5497568402       -4.1539948861
 H          7.0160125186        0.5434166232       -4.8002441756
 H          6.3203803969       -3.3701966319        4.3351895990
 H          6.3966762957       -3.4953573639        2.5753277097
 H          3.5504315192       -6.2580326917        1.4168153844
 H          3.4707285998       -6.1193463127        3.1747612185
 H         -2.4656356250        0.7792122203        6.0751025799
 H         -2.0603558953        2.3884781018        6.6798640687
 H         -4.2460317837        2.8784888915        3.2002237710
 H         -4.6639457060        1.2645486145        2.6170102716
 H         -5.7262758735       -0.1933023582       -1.5060643009
 H         -4.9601177667        1.2929373359       -0.9374532625
 H         -3.5063799565        0.5384579906       -4.7266538363
 H         -4.2858229804       -0.9347294686       -5.3114765657
 H          5.7572915969        2.1115653692       -3.1953141961
 H          6.1697483774        2.0927398720       -1.4789882863
 H          6.5068964354       -1.7794568431       -2.8784121437
 H          6.1074589256       -1.7537411465       -4.5984007903
 H          1.1704009627       -0.0697046202        4.4665357393
 H          0.5253709964       -1.6858768573       -0.4101807245
 H          1.3217941864        0.2616467143        1.0553472664
 H          0.0685428153       -1.1524861115       -3.7783381110
 H          4.9174573958        0.2102668448        2.4168277824
 H          0.0038638722       -4.1309974261        3.0512502798
 H          2.2981954106        3.6014082987        2.6000917258
 H         -3.3563844486       -2.0770393598        1.3180296305
 H         -1.7281566885        3.0198004091       -0.0838753761
 H         -1.0463073785       -4.8263449566       -1.9097777056
 H          1.8519734257        2.6528074525       -2.4422773879
 H          3.0978185923       -3.7992888189       -2.3156971134
 H          2.6460844556       -1.9805799098        4.4491091629
 H          2.4136305588       -2.8220115764        0.4744506177
 H          0.0899149748        3.3852543687        3.4940557716
 H         -1.2415698190       -0.3815976498       -1.2804854475
 H         -0.7107041419        0.2690552056        2.2605329119
 H         -2.7512043112       -3.2437252359       -2.4644836571
 H          3.3349517861        0.0367868490       -0.1779632403
 H          2.3901586807       -0.5717085847       -4.0962898389
 H          3.8755509604       -3.8698535637        4.2776482622
 H          4.2497116737       -3.8717925818        1.2427608560
 H         -2.0025441770        3.2654549738        4.3410362629
 H         -2.5526792085        0.3552963882        3.5944114412
 H         -2.9245056098        0.7686369182       -2.2895436165
 H         -4.4186686795       -1.8061232848       -2.9733568828
 H          5.2782319187       -0.2265683351       -1.2732125071
 H          4.5294313260        0.1435434436       -4.2148630381
 C         -9.1496624851        8.6127875482       -5.5061140581
 C         -8.9009672612        7.9425295894       -4.1534721150
 O        -10.5364310507        8.8303160733       -5.7071712412
 C        -11.0767106179        9.6137073771       -4.6562185042
 C        -10.8280225627        8.9435994845       -3.3033964962
 O         -9.4417059509        8.7255810751       -3.1021903449
 H         -8.8195588214        7.9732658390       -6.3248194188
 H         -9.3660396581        6.9461206419       -4.1457699964
 H        -10.6117231673       10.6101680476       -4.6641241294
 H        -11.3604347744        7.9821198088       -3.2660188759
 H         -7.8332946275        7.8561721147       -3.9514607965
 H        -12.1444507574        9.7001937056       -4.8581531468
 H        -11.1580810568        9.5834769083       -2.4848940429
 H         -8.6177644751        9.5744415354       -5.5435681375