142
-211.12826600
 C          1.0857990811       -6.6113156075        2.8349352173
 C          0.1772879833       -6.6269218687        1.6096273866
 C         -2.0105769649        5.4286662481        6.2118802121
 C         -2.9756963317        5.4480764049        5.0307937201
 C         -3.2881574407        6.5692089347       -2.7550390880
 C         -3.8957471510        5.9807724045       -4.0244213896
 C          6.3713661313       -2.1060958171       -2.7887785223
 C          5.7594086871       -2.5761418680       -4.1044075585
 C          1.9015779349       -5.3241886714        2.8756994128
 C         -0.7400506723       -5.4099883145        1.6127587666
 C         -1.1026144287        4.2060631771        6.1397180834
 C         -2.2067995545        5.4304905517        3.7144057036
 C         -3.4168759892        5.5854967957       -1.5974837493
 C         -3.2250481048        4.6566942057       -4.3726708455
 C          5.7371878182       -0.7925541854       -2.3475511916
 C          4.2503055074       -2.7346639522       -3.9594348218
 C          1.6078922289        0.5266032422        3.9180781905
 C         -1.4420559169        0.1975937692        0.1679530966
 C          1.3703919681        1.8554467418        0.4761430477
 C         -0.8856283888        0.2290389250       -3.4858201393
 C          3.3892760063       -0.5622809012        2.7172476974
 C         -2.6160211851       -0.8156923824        2.0091748479
 C          3.4501810314        1.8270885426        3.0718418210
 C         -3.2855274482        1.3597222357        1.1930890399
 C          1.0793823115        4.2083211573        0.0524742212
 C         -2.7446554801       -1.0478437502       -2.6403134939
 C          2.5572377466        2.8965062943       -1.3410040876
 C         -0.5709537517       -2.0780534806       -2.8692254118
 C          1.4539829558       -1.8970545837        3.5047840688
 C         -0.7308311991       -2.0288194778        0.9504382692
 C          1.5587917599        2.9901765482        4.1413179000
 C         -2.0810833164        2.4040902315       -0.7070149968
 C         -0.1409850515        3.1394368609        1.9285593025
 C         -3.0574774698        1.3522383304       -3.1041164073
 C          2.8750716303        0.4767512273       -0.9073099290
 C          1.3699656545       -0.7494504459       -3.6517514324
 C          2.1694219877       -0.6325183953        3.3953613746
 C         -1.6093408341       -0.8710166982        1.0435069012
 C          2.2303672070        1.7618153616        3.7439248547
 C         -2.2724774729        1.3133333199        0.2362052870
 C          0.7745988812        3.0717526088        0.8003917900
 C         -2.2279619733        0.1565467111       -3.1160598213
 C          2.2633937993        1.7591103196       -0.5866935499
 C         -0.0501804467       -0.8735963012       -3.3499561328
 C          4.0108761656        0.6620555043        2.5789248376
 C         -3.4317851527        0.2980193427        2.0668454067
 C          1.9591892418        4.0968226829       -1.0084064785
 C         -1.9080713016       -2.1448917733       -2.5347742686
 C          0.9896782886       -4.0980358178        2.8881059849
 C          0.0711920546       -4.1129320279        1.6394677936
 C         -0.3137913578        4.1846826685        4.8329227971
 C         -1.3085172025        4.2011092567        3.6255967196
 C         -2.7364543441        4.2613575019       -1.9292801052
 C         -3.3616804923        3.6550159843       -3.2288806660
 C          4.2223912712       -0.9399701479       -2.1893076605
 C          3.6008425250       -1.4211074302       -3.5257549491
 Br         5.6759189558        0.7617585195        1.6467419067
 Br        -4.7990971924        0.3803543500        3.3989753279
 Br         2.3476385555        5.6490163607       -2.0529987092
 Br        -2.6218772889       -3.7893486361       -1.8715952809
 N          1.7837819894       -2.9085529528        2.8247335627
 N         -0.8242304815       -3.0052660553        1.7431443475
 N          0.4278294280        2.9757744662        4.7095674416
 N         -2.9398419443        3.3168877354       -0.8779275052
 N         -0.5293503723        4.2342936280        2.4292031487
 N         -2.6194554334        2.4711284927       -3.5020295287
 N          3.6600495900        0.3367949440       -1.8843964135
 N          2.2030332352       -1.6303431679       -3.2990724122
 H          0.4777267376       -6.6847426108        3.7392851020
 H          1.7603753799       -7.4688021384        2.8121382432
 H         -0.4271386163       -7.5352467115        1.6040700187
 H          0.7860551191       -6.6211030379        0.7027989324
 H         -1.4008022579        6.3350255110        6.1994090908
 H         -2.5683732981        5.4104385740        7.1495077884
 H         -3.6295179981        4.5744067411        5.0805559552
 H         -3.6017495512        6.3406638168        5.0746974383
 H         -2.2324880630        6.7917912115       -2.9260357264
 H         -3.7919776379        7.5021285070       -2.4973851500
 H         -3.7739276286        6.6780354905       -4.8548476486
 H         -4.9655381149        5.8175653168       -3.8748495347
 H          7.4473586068       -1.9664444615       -2.9034607247
 H          6.2100855417       -2.8642131362       -2.0192706495
 H          6.1983644205       -3.5295537369       -4.4030511282
 H          5.9746005739       -1.8456744655       -4.8874393337
 H          2.5319720573       -5.2997004853        3.7669001018
 H          2.5518201219       -5.2610009409        2.0015275916
 H         -1.3753901970       -5.4045072356        0.7251847018
 H         -1.3885225816       -5.4272041024        2.4899985025
 H         -1.6941882368        3.2911190686        6.2006481901
 H         -0.3957361186        4.2070576078        6.9720341379
 H         -1.5840228101        6.3220742635        3.6252271302
 H         -2.8981793883        5.4157686540        2.8700297944
 H         -4.4679882610        5.3896753463       -1.3794500312
 H         -2.9555727373        5.9949178778       -0.6969692116
 H         -2.1632360545        4.8109580837       -4.5713447101
 H         -3.6766971248        4.2248755950       -5.2681606853
 H          5.9303964831       -0.0123371267       -3.0853769943
 H          6.1571015631       -0.4654155826       -1.3944766838
 H          4.0208285609       -3.4956903042       -3.2116619605
 H          3.8059041877       -3.0479384041       -4.9063576905
 H          0.6639248019        0.4989678188        4.4399619299
 H         -0.6646109089        0.1602968398       -0.5819028419
 H          1.1407742978        0.9788805784        1.0652358883
 H         -0.5056223175        1.1710891508       -3.8496002676
 H          3.8169372487       -1.4663915109        2.3144746546
 H         -2.7361777497       -1.6465555223        2.6855354145
 H          3.9441065933        2.7763420229        2.9285977521
 H         -3.9273052138        2.2249743351        1.2342914355
 H          0.6173364735        5.1465643328        0.3143477109
 H         -3.7815195532       -1.1191761061       -2.3481237314
 H          3.2483699799        2.8120957885       -2.1640505262
 H          0.0847390774       -2.9279435429       -2.7679367760
 H          0.5925132357       -1.9002284403        4.1868037576
 H          0.0164587199       -1.9926163930        0.1416910601
 H          2.0648598023        3.9267027939        3.8646464307
 H         -1.1373150314        2.3738231863       -1.2712334962
 H         -0.4665767326        2.1661729191        2.3243135696
 H         -4.0654214401        1.2339609875       -2.6799887831
 H          2.6069092339       -0.3569231844       -0.2388857324
 H          1.6692102503        0.1718270183       -4.1703159055
 H          0.3370764116       -4.1053954558        3.7775045753
 H          0.7124811746       -4.0393098486        0.7432761021
 H          0.3277356788        5.0787154352        4.7446759736
 H         -1.9029375868        3.2754034605        3.6954124296
 H         -1.6643954862        4.4124981121       -2.1370043848
 H         -4.4236969889        3.4420080984       -3.0160524891
 H          3.9853184351       -1.6892359538       -1.4133348834
 H          3.7790231576       -0.6312137606       -4.2749654387
 C         -2.7069770998      -10.7417814379       -3.4033003288
 C         -1.7122306887      -10.4936202656       -4.5391268866
 O         -2.3657111891       -9.9691717742       -2.2651283748
 C         -2.3194886381       -8.5903814727       -2.5932692578
 C         -1.3254405719       -8.3415528893       -3.7288272183
 O         -1.6635943897       -9.1154667703       -4.8680285192
 H         -2.6816386323      -11.7838007742       -3.0840643447
 H         -0.7123469457      -10.8335092026       -4.2324811454
 H         -3.3190175455       -8.2493769905       -2.8981697364
 H         -0.3115596744       -8.6051556484       -3.3946876573
 H         -2.0192093801      -11.0132384697       -5.4469180669
 H         -2.0134807489       -8.0698882178       -1.6865292922
 H         -1.3537894574       -7.2999452559       -4.0478445249
 H         -3.7203572627      -10.4765314482       -3.7377034111