142
-211.12689583
 C          4.6161608537       -6.3451240403        2.8854087150
 C          4.3209430220       -6.7491834815        1.4445671229
 C         -5.9493410473        0.9644614919        4.1810256238
 C         -6.3496300144        0.5440682994        2.7704184459
 C         -5.0794594801        2.0787233299       -4.8146140282
 C         -4.8108742757        1.3974469191       -6.1526798288
 C          7.4037049322        1.0242866340       -1.2669241311
 C          7.6013141255        0.4452156769       -2.6640386754
 C          4.4194705258       -4.8443904698        3.0661775249
 C          2.9027536125       -6.3458247076        1.0595265499
 C         -4.5173525801        0.5348606018        4.4794358058
 C         -5.3902719007        1.1375892608        1.7448369088
 C         -4.8973966786        1.0913399709       -3.6672534717
 C         -3.4062210658        0.8054357426       -6.1769241268
 C          6.0151739841        1.6386993407       -1.1383377532
 C          6.5274483347       -0.5943181247       -2.9633635983
 C          0.3548910169       -0.5186767297        3.4614141454
 C         -0.6401899307       -2.1734859840       -0.9695031392
 C          0.3520131415        0.8051462194        0.0196142084
 C          0.7793128390       -1.3780742192       -4.2721179146
 C          2.6822595067       -0.1736932472        2.9455841958
 C         -1.4063133491       -3.9222220781        0.4966092228
 C          1.1841055715        1.7148780557        3.1074448580
 C         -3.0027441714       -2.5107662516       -0.6462246695
 C         -1.1512345622        2.5652978437       -0.6454104513
 C         -0.0619342641       -3.6076246800       -3.9203143640
 C          1.1412097209        2.5699340634       -1.4146570775
 C          2.2390200957       -3.0848876764       -3.4016411323
 C          1.8243082130       -2.4825675405        3.2217940733
 C          1.0276456941       -3.5946383020        0.1611386687
 C         -1.2307777917        1.3817229804        3.4632364804
 C         -2.2164388892       -0.7147013809       -2.1655996956
 C         -1.9638914242        0.7539239675        0.8415889268
 C         -1.6214553853       -1.8463124619       -4.6512618724
 C          2.7017060221        0.7711065112       -0.7272900691
 C          3.0942381461       -0.7752734191       -3.6762416517
 C          1.6223846890       -1.0395780135        3.2281283901
 C         -0.3562691451       -3.2288944411       -0.1081218522
 C          0.1229896991        0.8538571361        3.3843713488
 C         -1.9561384395       -1.8083501103       -1.2423551970
 C         -0.9149576072        1.3823208954        0.0538295749
 C         -0.2759619706       -2.2881343955       -4.3167331876
 C          1.3840842670        1.3915433711       -0.7065488586
 C          2.0297975137       -1.7624635155       -3.8020903031
 C          2.4456438407        1.1851329247        2.9018099041
 C         -2.7071009294       -3.5488242704        0.2180919066
 C         -0.1201243837        3.1322608023       -1.3715593591
 C          1.1943676620       -3.9832915285       -3.4787806904
 C          2.9983853715       -4.4275282839        2.6893526039
 C          2.6968934482       -4.8387721363        1.2251682080
 C         -3.5433997222        1.1383377768        3.4708324767
 C         -3.9554437084        0.7032177240        2.0255552590
 C         -3.4912766318        0.5003655714       -3.6732447696
 C         -3.2165479621       -0.2006220877       -5.0447122959
 C          4.9267856113        0.6024944165       -1.4261016440
 C          5.1289384639        0.0104027132       -2.8447012319
 Br         3.8913656046        2.3707827992        2.5093148139
 Br        -4.1432975683       -4.4880401408        1.0586948672
 Br        -0.4550172146        4.7380447471       -2.3515388002
 Br         1.4762639832       -5.7905420389       -2.9267317146
 N          2.8816450689       -3.0029970739        2.7683745398
 N          1.3297967288       -4.5229626458        0.9595205229
 N         -2.2283130789        0.6303042953        3.6695150786
 N         -3.3612535442       -0.4933117906       -2.6559366236
 N         -3.0528259737        1.3355349715        1.1175319502
 N         -1.8671915334       -0.6511999841       -4.9880822693
 N          3.6532265479        1.2480779639       -1.4037034299
 N          4.1490324140       -1.0171440818       -3.0256935035
 H          3.9458209850       -6.8834079525        3.5591708069
 H          5.6417573613       -6.6111582276        3.1468068203
 H          4.4335598399       -7.8279981299        1.3266191815
 H          5.0323324874       -6.2609564846        0.7748858462
 H         -6.0294482922        2.0499194876        4.2746987879
 H         -6.6228460120        0.5123941814        4.9108489186
 H         -6.3308663271       -0.5456129216        2.6963442595
 H         -7.3653840924        0.8792356220        2.5548214132
 H         -4.3880165197        2.9146277352       -4.6867267909
 H         -6.0956286353        2.4756989692       -4.7948165697
 H         -4.9149040398        2.1173406314       -6.9660537026
 H         -5.5428701568        0.6019743895       -6.3103028067
 H          8.1561564300        1.7887698522       -1.0673889441
 H          7.5216783726        0.2331202923       -0.5232696646
 H          8.5866168723       -0.0173447565       -2.7424653457
 H          7.5458500703        1.2483286676       -3.4022703041
 H          4.6037328319       -4.5571264488        4.1034322643
 H          5.1185969614       -4.2932125696        2.4349603179
 H          2.6966827407       -6.6140165832        0.0216138390
 H          2.1777679488       -6.8622529501        1.6905192812
 H         -4.4309689496       -0.5520471136        4.4355540204
 H         -4.2238716714        0.8568406748        5.4807064475
 H         -5.4333334931        2.2276405513        1.7695555681
 H         -5.6596224873        0.8112925668        0.7386955566
 H         -5.6164443051        0.2747725961       -3.7502402022
 H         -5.0591389059        1.5881358068       -2.7089245267
 H         -2.6606428245        1.5945026179       -6.0665386753
 H         -3.2227277953        0.2981131689       -7.1263166776
 H          5.8990125137        2.4624318960       -1.8443286270
 H          5.8627028509        2.0340648543       -0.1322968278
 H          6.6025829559       -1.4272617371       -2.2622393371
 H          6.6509869970       -0.9916613023       -3.9729309957
 H         -0.4803982416       -1.1673874130        3.6751603285
 H          0.1684577604       -1.6345148822       -1.4424743659
 H          0.5351118081       -0.1047884560        0.5733388627
 H          0.5918504358       -0.3615121499       -4.5814897291
 H          3.6617507623       -0.5870573525        2.7659401348
 H         -1.1771081759       -4.7368606754        1.1644894535
 H          1.0197621077        2.7800079114        3.0437421631
 H         -4.0183164205       -2.2246607501       -0.8678374265
 H         -2.1337011955        3.0077967283       -0.6082190886
 H         -0.8697036863       -4.3233854042       -3.9482270567
 H          1.9463560515        3.0167548012       -1.9753042015
 H          3.2125090292       -3.3736727395       -3.0390662815
 H          0.9875272353       -3.0835898455        3.6036811541
 H          1.7872131682       -3.0081475000       -0.3801182520
 H         -1.3378450989        2.4604467758        3.2772260221
 H         -1.3411418199       -0.0982887003       -2.4185300767
 H         -1.7378047752       -0.2635176031        1.1932619164
 H         -2.4157090761       -2.5991209016       -4.5402261071
 H          2.8084514625       -0.1368325296       -0.1124600924
 H          2.9042771526        0.1961264693       -4.1533491013
 H          2.2588288912       -4.9339135543        3.3324941424
 H          3.3835701751       -4.2793385831        0.5654284787
 H         -3.5740742813        2.2412707968        3.5051262582
 H         -3.8637014693       -0.3947882277        1.9893587065
 H         -2.7320963262        1.2926168264       -3.5666380774
 H         -3.9317814293       -1.0365040471       -5.1369437584
 H          4.9798826940       -0.2275374082       -0.6995106477
 H          4.9960588060        0.8333791329       -3.5672310347
 C         -1.5896711868       11.1063985460        4.9968182190
 C         -2.5814023569       10.0160034986        4.5866613210
 O         -2.2030604682       12.0317267575        5.8785141166
 C         -2.7151454563       11.3683171332        7.0220273864
 C         -3.7070247152       10.2779635753        6.6119003714
 O         -3.0936901139        9.3519221547        5.7302663622
 H         -1.2622871227       11.6812878324        4.1304677198
 H         -3.4101974869       10.4663799869        4.0215710625
 H         -1.8864457904       10.9180059171        7.5875537941
 H         -4.5743976663       10.7375101230        6.1163065283
 H         -2.0923889863        9.2513011988        3.9830433854
 H         -3.2041761736       12.1334614657        7.6250380402
 H         -4.0349746882        9.7031063579        7.4781345206
 H         -0.7216634336       10.6470900940        5.4917345107