142
-211.12710173
 C          4.4482799373       -6.8484885579        3.5427437783
 C          3.6549567494       -7.3445182455        2.3384077013
 C         -4.0137014274        2.7509434413        5.1635245700
 C         -4.8149654264        2.4048006923        3.9126246138
 C         -5.6824869061        2.4318483860       -2.4459553483
 C         -5.8000722364        1.5923779395       -3.7138313200
 C          7.0215141734        0.9038524711       -2.1822880728
 C          6.9989323464       -0.1500524802       -3.2837027884
 C          4.6100638955       -5.3342787726        3.4814014180
 C          2.2919800563       -6.6654986895        2.2851556438
 C         -2.6919852103        1.9916013441        5.1767967921
 C         -4.0095965629        2.7216327236        2.6560783158
 C         -5.2815783913        1.5562870711       -1.2646581888
 C         -4.4883843670        0.8697525159       -3.9970608624
 C          5.7143556446        1.6858080684       -2.1712374458
 C          5.8186947434       -1.0927353590       -3.0839217903
 C          1.5609440091       -0.1854040116        3.6442073862
 C         -0.7919782248       -1.8809173398        0.7688503601
 C          0.2117688961        2.2141837647       -0.3587304172
 C         -0.1370201373       -1.5044176631       -3.0313161418
 C          3.8320691618       -0.4312638330        2.8792689654
 C         -1.3925946025       -3.3426105596        2.5861551721
 C          2.7487560174        1.7283268314        2.7919409643
 C         -3.0066842998       -1.7745185228        1.7091189747
 C         -1.1867376841        3.7167582268       -1.6233653210
 C         -0.9651502775       -3.5797295609       -2.1307908653
 C          0.9719798765        3.0431940804       -2.4855449416
 C          1.4135652933       -3.2210375197       -2.3650214989
 C          2.5956452276       -2.4159729542        3.7040779795
 C          0.8543297910       -3.5424732033        1.5736500143
 C          0.3918435675        1.9864788853        3.4790460119
 C         -2.4372269348       -0.3273927633       -0.2136680494
 C         -1.9910147535        2.8738768052        0.5608683581
 C         -2.5624703440       -1.7705257965       -2.6413706990
 C          2.4185750304        1.4935438958       -1.2094928713
 C          2.2808527783       -1.0670657508       -3.2346248274
 C          2.6706346857       -0.9898527200        3.4186735837
 C         -0.4547252890       -2.9061336370        1.6486012628
 C          1.5849659031        1.1689390883        3.3182608705
 C         -2.0695043472       -1.3269443005        0.7784683926
 C         -0.9738664627        2.9388648544       -0.4863794019
 C         -1.2083886964       -2.3020391785       -2.6323555504
 C          1.1862247159        2.2588759809       -1.3483690296
 C          1.1715311937       -1.9464536376       -2.8831421300
 C          3.8520463393        0.9177533769        2.5884944820
 C         -2.6433452404       -2.7579528735        2.6091032567
 C         -0.2063879141        3.7505246760       -2.6005183960
 C          0.3419051530       -4.0195079656       -2.0183938256
 C          3.2545145172       -4.6332496451        3.4308989867
 C          2.4339452920       -5.1453868630        2.2112590179
 C         -1.8718673864        2.2979477385        3.9244596581
 C         -2.6958607428        1.9409597741        2.6560729013
 C         -3.9598333254        0.8419671767       -1.5314841733
 C         -4.0898497420       -0.0240002093       -2.8248918248
 C          4.5138505211        0.7587054497       -1.9641492778
 C          4.4940519163       -0.3313297934       -3.0670376330
 Br         5.4464345226        1.6940070528        1.8699441212
 Br        -3.9173189901       -3.3327850245        3.9116596236
 Br        -0.4975629767        4.8130467342       -4.1594959775
 Br         0.6682442515       -5.7760803500       -1.3459891677
 N          3.4463897913       -3.2293887408        3.2443342524
 N          1.1400243898       -4.5492336813        2.2809484180
 N         -0.6893464155        1.4971980311        3.9080164507
 N         -3.6463961876       -0.0329163940       -0.4457410533
 N         -1.8210406311        2.0950647399        1.5379355940
 N         -2.8069555550       -0.5978909165       -3.0494533898
 N          3.3180012410        1.5271982993       -2.0937713294
 N          3.4372703206       -1.2503417478       -2.7633556584
 H          3.9244092707       -7.1218129316        4.4615031597
 H          5.4328241193       -7.3189267375        3.5634703645
 H          3.5185080786       -8.4254361306        2.3975602670
 H          4.2056385631       -7.1243113411        1.4213778704
 H         -3.8164615386        3.8257671178        5.1852332272
 H         -4.5881644354        2.4970698461        6.0556694778
 H         -5.0650010192        1.3420088866        3.9236380587
 H         -5.7487357817        2.9704555601        3.8993489644
 H         -4.9305134883        3.2105129265       -2.5899486617
 H         -6.6360499510        2.9173096756       -2.2301271893
 H         -6.0556274690        2.2280187597       -4.5630233436
 H         -6.5988379407        0.8572886999       -3.5905782959
 H          7.8525366200        1.5936133737       -2.3372315734
 H          7.1618647955        0.4206025534       -1.2133891771
 H          7.9277107093       -0.7227694297       -3.2744018225
 H          6.9138759554        0.3399725795       -4.2562977868
 H          5.1555624886       -4.9727611262        4.3555280887
 H          5.1748748334       -5.0514745745        2.5915531077
 H          1.7324378886       -7.0025487274        1.4107109497
 H          1.7106653720       -6.9124527514        3.1748239619
 H         -2.8735758903        0.9164522946        5.2130693920
 H         -2.1047339339        2.2642050624        6.0559908299
 H         -3.7981688512        3.7938292323        2.6159624133
 H         -4.5831129235        2.4469908207        1.7676900330
 H         -6.0471924204        0.8035547470       -1.0691722143
 H         -5.1720863964        2.1642101852       -0.3648186813
 H         -3.6866592358        1.5901836704       -4.1674006048
 H         -4.5796788064        0.2501407930       -4.8915027712
 H          5.5799309750        2.2126583820       -3.1174127140
 H          5.7232837260        2.4248189461       -1.3679338369
 H          5.9184967013       -1.6240753262       -2.1359084167
 H          5.7822567789       -1.8350555941       -3.8838514232
 H          0.6507408016       -0.5949601581        4.0520933921
 H         -0.0657794500       -1.5312004393        0.0488685336
 H          0.3496133437        1.6191671713        0.5318661851
 H         -0.3501070975       -0.5238814206       -3.4272310625
 H          4.6862872854       -1.0652187688        2.7034102350
 H         -1.1200325087       -4.1335507467        3.2662035883
 H          2.7862281857        2.7779254612        2.5403831906
 H         -3.9961753444       -1.3462298048        1.7018221923
 H         -2.1008995546        4.2795521384       -1.7484790052
 H         -1.7852702400       -4.2130162995       -1.8277660720
 H          1.7349344779        3.0779581130       -3.2464885075
 H          2.4322546989       -3.5560107294       -2.2520788196
 H          1.7416477869       -2.7342822277        4.3173773679
 H          1.5551017579       -3.1124695642        0.8413408121
 H          0.4842564804        3.0404741672        3.1765974261
 H         -1.6020060839        0.1288595393       -0.7612691608
 H         -2.8660395326        3.5168327090        0.4141628963
 H         -3.3438997296       -2.4255219071       -2.2296440052
 H          2.5102738618        0.8933998552       -0.2904693109
 H          2.0365855827       -0.2322178249       -3.9055030005
 H          2.6631173432       -4.8519464565        4.3354759519
 H          2.9770438604       -4.8472840642        1.2981982163
 H         -1.6347992406        3.3777577702        3.8719536205
 H         -2.9026078111        0.8642523774        2.7050688283
 H         -3.1501724316        1.5670200876       -1.7146852884
 H         -4.8616854200       -0.7898590995       -2.6332809173
 H          4.5799981615        0.2554027323       -0.9837639115
 H          4.3223256150        0.1834419569       -4.0266328838
 C         -3.7977913344        7.1645473009       -4.4464053946
 C         -4.2574286049        5.8268434804       -3.8667920025
 O         -4.1882804070        8.2365613440       -3.6036094998
 C         -3.6646956249        8.0558277485       -2.3005781517
 C         -4.1401094868        6.7258063011       -1.7150518222
 O         -3.7547885725        5.6456501439       -2.5503683421
 H         -4.2682243607        7.3468814759       -5.4123295430
 H         -5.3555398054        5.7902581286       -3.8426160948
 H         -2.5655466254        8.0699858283       -2.3403970891
 H         -5.2349143720        6.7371031911       -1.6161052040
 H         -3.8670204458        5.0012424145       -4.4611148528
 H         -4.0254081626        8.8942549857       -1.7042813103
 H         -3.6812682065        6.5453858188       -0.7422771095
 H         -2.7045451724        7.1609097333       -4.5591734411