142
-211.12890367
 C          4.5104951985       -6.3676203880        3.0275528817
 C          4.0197530236       -6.7607371816        1.6379678609
 C         -4.6451101213        2.5162258034        4.8916516250
 C         -5.2122477665        2.1129376994        3.5345594224
 C         -4.4542983472        3.3604337921       -3.9797120484
 C         -4.4342089236        2.6380403054       -5.3229994562
 C          8.0151636723        0.3353389493       -1.7520381769
 C          7.9618369125       -0.3075307366       -3.1341796689
 C          4.5648598409       -4.8501018010        3.1604303819
 C          2.6492212039       -6.1521382272        1.3670267683
 C         -3.2681742891        1.8952201717        5.1012338973
 C         -4.2633221641        2.5345615493        2.4189440370
 C         -4.3239679864        2.3615629409       -2.8352368171
 C         -3.1540798622        1.8234729764       -5.4711094072
 C          6.7686023233        1.1776174224       -1.5094032870
 C          6.7057168906       -1.1595597388       -3.2746103096
 C          1.2792238006        0.0743397678        3.7359722795
 C         -0.3962516837       -1.5226866845       -0.4814720570
 C          1.1929870115        1.3084472802        0.2397614107
 C          0.7971739497       -0.9989245791       -3.9460587928
 C          3.5703236466        0.0291931077        2.9940740534
 C         -1.2786835199       -3.1133225773        1.0950175030
 C          2.4065200251        2.1358996182        3.2062837348
 C         -2.7417223563       -1.4875629855        0.0637291476
 C         -0.0819867857        3.2631438915       -0.3546584740
 C         -0.3530500283       -3.0491965506       -3.4208621412
 C          2.0974189504        2.8898606768       -1.3336071310
 C          2.0444133570       -2.9041975867       -3.1609271926
 C          2.3950098226       -2.1046208683        3.4512777249
 C          1.1353517236       -3.1663210954        0.5339440212
 C          0.0135230447        2.2002318831        3.7904527516
 C         -1.8349850437        0.1509510798       -1.5632729841
 C         -1.0157368288        1.6344476493        1.2668374359
 C         -1.6751347260       -1.0717384243       -4.0595495777
 C          3.4204107739        0.8832928128       -0.7256911471
 C          3.2309690542       -0.7775267949       -3.6188794069
 C          2.4215431403       -0.6482347479        3.4117024517
 C         -0.1965402438       -2.5974288167        0.3795344525
 C          1.2565849900        1.4633332632        3.6177497792
 C         -1.6607683691       -0.9618083873       -0.6427993414
 C          0.0382562379        2.0762768057        0.3673142487
 C         -0.3907690777       -1.7218937342       -3.8463748403
 C          2.2257120250        1.7070028678       -0.6033017071
 C          2.0116891596       -1.5752094309       -3.5918683608
 C          3.5443775356        1.4063653176        2.9101807594
 C         -2.5280464460       -2.5484879714        0.9244541781
 C          0.9473378545        3.6432195946       -1.1960582046
 C          0.8651832949       -3.6178365249       -3.0938734614
 C          3.1948192869       -4.2261526931        2.8974858608
 C          2.6921048900       -4.6274075327        1.4866831515
 C         -2.3004213935        2.3172860131        3.9988341974
 C         -2.8859064278        1.9080303293        2.6066420719
 C         -3.0400063270        1.5483780163       -2.9648819827
 C         -3.0182400275        0.8053781279       -4.3419253159
 C          5.5005493168        0.3312716165       -1.6369919780
 C          5.4468987156       -0.3252443388       -3.0407154931
 Br         5.1108585465        2.3343527778        2.3300696146
 Br        -4.0061443511       -3.2455531923        1.9145689034
 Br         0.7653162719        5.2537112640       -2.2081927907
 Br         0.9063111841       -5.4329202002       -2.4982053249
 N          3.3077826131       -2.7993867595        2.9235358972
 N          1.3691905413       -4.1112562761        1.3357010894
 N         -1.0643012824        1.6206815349        4.1144592988
 N         -2.9726720883        0.5520486096       -1.9443188949
 N         -1.9801524559        2.3782752747        1.6086020802
 N         -1.7596817790        0.1427700035       -4.4063763747
 N          4.3588789401        1.1801203579       -1.5140541414
 N          4.2974000725       -1.1776668365       -3.0738239613
 H          3.8331157376       -6.7746597590        3.7815527317
 H          5.5033198085       -6.7838308214        3.2064248053
 H          3.9547659455       -7.8467770738        1.5559724967
 H          4.7293812413       -6.4079061501        0.8863959333
 H         -4.5652352448        3.6043588683        4.9438076366
 H         -5.3147917851        2.1890624598        5.6884509793
 H         -5.3468566331        1.0291442001        3.5052624586
 H         -6.1848642363        2.5803900338        3.3761952838
 H         -3.6259430827        4.0711954045       -3.9367508193
 H         -5.3847000969        3.9198597930       -3.8703460893
 H         -4.4995247642        3.3613989356       -6.1373149936
 H         -5.2979732415        1.9728106504       -5.3922638320
 H          8.9000956182        0.9677703131       -1.6661681602
 H          8.0821149076       -0.4433072997       -0.9890572814
 H          8.8433095888       -0.9313379811       -3.2917510225
 H          7.9594582038        0.4725170636       -3.8987536312
 H          4.8908943411       -4.5656938181        4.1630162579
 H          5.2755772965       -4.4336350544        2.4445716152
 H          2.3051879277       -6.4133768460        0.3644658251
 H          1.9183731875       -6.5316152305        2.0827900206
 H         -3.3403134055        0.8063512169        5.0980362714
 H         -2.8530190913        2.2030156727        6.0632650957
 H         -4.1540754556        3.6198894843        2.4047264136
 H         -4.6543734926        2.2229835617        1.4492702688
 H         -5.1709861489        1.6736523960       -2.8320710517
 H         -4.3071261000        2.8821588636       -1.8760808951
 H         -2.2828366556        2.4801488781       -5.4505913030
 H         -3.1509478258        1.2884357275       -6.4229890971
 H          6.7131522011        1.9898225402       -2.2358309548
 H          6.7930267262        1.6198463543       -0.5115780212
 H          6.7185678656       -1.9737414840       -2.5480022713
 H          6.6520918890       -1.5995419105       -4.2725576448
 H          0.3778334760       -0.4264999208        4.0536150635
 H          0.4369776122       -1.1205886307       -1.0401970722
 H          1.2879144632        0.3954239025        0.8103542927
 H          0.7456109572        0.0273474936       -4.2752634738
 H          4.4512244492       -0.5398447969        2.7435591874
 H         -1.1143394414       -3.9443844208        1.7617503990
 H          2.4039930230        3.2110804106        3.1084937642
 H         -3.7181269613       -1.0512658036       -0.0722468575
 H         -0.9774591585        3.8535229551       -0.2452198683
 H         -1.2648002536       -3.6213258417       -3.3374431612
 H          2.9015799529        3.1899958505       -1.9858660600
 H          2.9911559033       -3.3422493252       -2.8882366159
 H          1.5173713637       -2.5534492132        3.9367081160
 H          1.9193251298       -2.7164359669       -0.0960362190
 H          0.0566766851        3.2760281792        3.5655982462
 H         -0.9023013954        0.6162944750       -1.9146197206
 H         -0.9116984707        0.6038660912        1.6371888010
 H         -2.5640609848       -1.6841780529       -3.8484219929
 H          3.4459391457       -0.0131125916       -0.0857005618
 H          3.1516057199        0.2001806207       -4.1139207784
 H          2.4525277800       -4.5904876908        3.6277529752
 H          3.3875056996       -4.1998786434        0.7427742739
 H         -2.1644400660        3.4126316964        3.9907568462
 H         -2.9528831996        0.8073991072        2.6057022704
 H         -2.1556266020        2.2064076769       -2.9484482858
 H         -3.8640235429        0.0959877992       -4.3469756269
 H          5.4958799339       -0.4755987260       -0.8828525487
 H          5.3734122893        0.4883754131       -3.7820520667
 C         -8.8782363504        4.6869537221        2.5094880601
 C        -10.3546071624        4.3837782660        2.2473388739
 O         -8.0816871552        3.5433824414        2.2498142550
 C         -8.2690684408        3.0933740839        0.9181672721
 C         -9.7456305385        2.7918547772        0.6564054147
 O        -10.5420555401        3.9361082821        0.9152477822
 H         -8.7130029139        4.9431151192        3.5561388800
 H        -10.7010093294        3.6096944561        2.9474144509
 H         -7.9198547909        3.8654939656        0.2177119819
 H        -10.0716140535        1.9635655687        1.3020670728
 H        -10.9626987952        5.2819137931        2.3559538472
 H         -7.6635858831        2.1935104446        0.8123106102
 H         -9.9119922545        2.5350396552       -0.3898161891
 H         -8.5523031989        5.5154338310        1.8642578369