142
-211.13189570
 C          3.4924377329       -6.4103044831        3.3192838412
 C          2.4767047808       -6.8679868397        2.2774737099
 C         -2.9174052268        4.3701793846        6.3638291836
 C         -3.9940927670        3.9500893982        5.3683298466
 C         -5.6888737323        4.0358106234       -2.1888735787
 C         -6.2641027423        3.1648420022       -3.3012282139
 C          6.0381091884       -1.3941417617       -3.3445291473
 C          5.4181240341       -2.2580033728       -4.4381043028
 C          3.8186506564       -4.9334621607        3.1292319943
 C          1.2101860956       -6.0248106751        2.3635838445
 C         -1.6827391108        3.4877256794        6.2183772281
 C         -3.4569002590        4.0144768966        3.9429378153
 C         -5.3400749475        3.1857338971       -0.9722242723
 C         -5.2782095822        2.0662611929       -3.6827268810
 C          5.0923628706       -0.2611858168       -2.9644119163
 C          4.0750912774       -2.8120495724       -3.9775593077
 C          1.7387345730        0.5975474564        3.8055809514
 C         -1.5396803437       -1.1430930654        0.7210657237
 C          0.5822300335        1.3519563892        0.3859916010
 C         -1.6056735967       -1.3926985545       -2.9453236279
 C          3.5758344128       -0.0140664357        2.3728184467
 C         -2.0452153189       -2.2761368310        2.7835799925
 C          2.8934910249        2.2969229010        2.5482620347
 C         -3.4991791825       -0.5206725215        1.9746535757
 C         -0.4758756627        3.4534316417       -0.1288403422
 C         -2.8463295708       -3.0167421518       -1.6695525900
 C          1.1308095521        2.4921552956       -1.6600906558
 C         -0.5198724553       -3.4054648627       -2.1896807323
 C          2.3395566457       -1.7829535061        3.5919506494
 C         -0.0282837832       -2.9280909083        1.4949878044
 C          0.9117272627        2.9296131796        3.8670626466
 C         -2.9755194322        0.6491286673       -0.1509963927
 C         -1.0346116789        2.2817322012        1.9857264496
 C         -3.9348860554       -0.8919610138       -2.2665926203
 C          2.2281650578        0.3276991067       -1.1318896019
 C          0.7937787074       -1.7080757653       -3.4264702101
 C          2.5670196719       -0.3806580245        3.2677004342
 C         -1.2208023256       -2.1102890548        1.6693006610
 C          1.8826046824        1.9344880649        3.4375379611
 C         -2.6708359511       -0.3439149999        0.8670775270
 C         -0.3092405142        2.3657560904        0.7278015124
 C         -2.7935380367       -1.7918502636       -2.3339799409
 C          1.3055549962        1.4052234357       -0.8022408518
 C         -0.4646571712       -2.1824447251       -2.8633624781
 C          3.7262210326        1.3164150112        2.0388478825
 C         -3.1662797102       -1.4788766257        2.9145262403
 C          0.2435028669        3.4915441773       -1.3087652167
 C         -1.7103897617       -3.8044628175       -1.6172115527
 C          2.5565972110       -4.0764901036        3.2205193488
 C          1.5249713694       -4.5413415643        2.1607932606
 C         -1.1229956266        3.5580828177        4.8000807498
 C         -2.2297495205        3.1231088105        3.7826605705
 C         -4.3431226372        2.0915852442       -1.3397416001
 C         -4.9356394649        1.1950948185       -2.4770566916
 C          3.7445759349       -0.8093752046       -2.4923967299
 C          3.1173718842       -1.6778435403       -3.6124794144
 Br         5.0966932928        1.8192072842        0.8060735167
 Br        -4.2865684822       -1.6962661779        4.4471728143
 Br        -0.0029250064        4.9671729696       -2.4976827246
 Br        -1.7866371226       -5.4739852842       -0.6914111203
 N          2.8839209652       -2.7127982165        2.9336409553
 N          0.3318255271       -3.7798801455        2.3525213979
 N         -0.0540255368        2.6334254545        4.6300882961
 N         -4.0891116900        1.2457322637       -0.2174198876
 N         -1.6793160612        3.2556937359        2.4719118091
 N         -3.9168773504        0.2548671595       -2.8024299231
 N          2.8644173933        0.2847296270       -2.2210584458
 N          1.8970365213       -2.2305226813       -3.1024978174
 H          3.0831675104       -6.5662884201        4.3198870479
 H          4.4077821010       -6.9983934271        3.2340662966
 H          2.2230690299       -7.9172344575        2.4362848741
 H          2.9093345518       -6.7732399971        1.2790653001
 H         -2.6420501076        5.4121223828        6.1849793523
 H         -3.3001665222        4.2927287425        7.3827016755
 H         -4.3153476460        2.9296069847        5.5888805922
 H         -4.8627569801        4.6040622371        5.4594878223
 H         -4.7889494783        4.5391806957       -2.5493936976
 H         -6.4115589738        4.8014720532       -1.9024810451
 H         -6.4833618734        3.7757646964       -4.1783675007
 H         -7.1989950984        2.7120458062       -2.9630661063
 H          6.9850697565       -0.9745726628       -3.6881211249
 H          6.2421634548       -2.0087022800       -2.4649052440
 H          6.0870971568       -3.0830283334       -4.6891302590
 H          5.2688085365       -1.6567913519       -5.3375543113
 H          4.5248607674       -4.5970960487        3.8911467852
 H          4.2752365434       -4.7703368117        2.1515044184
 H          0.4902820923       -6.3357348528        1.6041398963
 H          0.7405508145       -6.1455628033        3.3409737165
 H         -1.9317011205        2.4487284525        6.4402898775
 H         -0.9039344262        3.8043889582        6.9151752627
 H         -3.1781258841        5.0379166655        3.6869121638
 H         -4.2187197891        3.6842782439        3.2345607696
 H         -6.2371945936        2.7154146035       -0.5665151389
 H         -4.8997888159        3.8055797794       -0.1891925310
 H         -4.3549070849        2.5027336603       -4.0671086176
 H         -5.7006556197        1.4292586478       -4.4625637000
 H          4.9143240495        0.3848299588       -3.8247060190
 H          5.5227840379        0.3474984760       -2.1667757729
 H          4.2086708694       -3.4517037842       -3.1031038468
 H          3.6186517515       -3.4113355368       -4.7678653557
 H          0.9482112176        0.3381927414        4.4926166971
 H         -0.9073272433       -1.0131436740       -0.1456891109
 H          0.7173647179        0.5172741577        1.0590727953
 H         -1.5844469754       -0.4412236940       -3.4536247058
 H          4.2131730131       -0.7799274689        1.9608366068
 H         -1.7901585403       -3.0263066551        3.5146347811
 H          3.0160430600        3.3279967250        2.2525367424
 H         -4.3764116137        0.0977405804        2.0766201364
 H         -1.1640495248        4.2363272594        0.1463683586
 H         -3.7592542174       -3.3391279500       -1.1918355956
 H          1.6955003803        2.5340227568       -2.5765003223
 H          0.3706162008       -4.0105047527       -2.1309464921
 H          1.6407917939       -1.9751362128        4.4178207205
 H          0.5351083195       -2.7503242348        0.5651757754
 H          1.0360813549        3.9367529994        3.4427658805
 H         -2.1659612741        0.8408102383       -0.8707030483
 H         -0.9751990525        1.3079450267        2.4937471161
 H         -4.7895685464       -1.2460819547       -1.6714641533
 H          2.3347911899       -0.4499964730       -0.3593691982
 H          0.7255368157       -0.8571357634       -4.1165396088
 H          2.0825350511       -4.1826488679        4.2109806860
 H          1.9631690178       -4.3720820401        1.1612208489
 H         -0.8268555027        4.5901436229        4.5437375298
 H         -2.4748490065        2.0735561935        4.0144863247
 H         -3.4114194704        2.5275505184       -1.7364526800
 H         -5.8402373889        0.7068758469       -2.0745042312
 H          3.8786535792       -1.4500465445       -1.6028235365
 H          2.9356164071       -1.0310679043       -4.4841015425
 C          3.3750877221        1.7250074470       -7.9984113731
 C          2.2447688832        0.8094614661       -7.5258090431
 O          3.3893709065        2.9255870194       -7.2462464268
 C          3.5279648236        2.6468642211       -5.8628814273
 C          2.4070528164        1.7255790928       -5.3806750857
 O          2.3791645934        0.5266822368       -6.1431500580
 H          3.2299010390        2.0168340149       -9.0385832238
 H          1.2762178736        1.2969937901       -7.7078917130
 H          4.5029935456        2.1716892267       -5.6818051140
 H          1.4406277384        2.2410093469       -5.4812048576
 H          2.2795780766       -0.1519773952       -8.0389430919
 H          3.4859922068        3.6090614971       -5.3524706581
 H          2.5712659525        1.4173498413       -4.3456930392
 H          4.3395883600        1.2082991371       -7.8859488273