142
-211.12783254
 C          6.7158187647       -0.5726096187       -4.4039761863
 C          6.2194074975       -1.7535846751       -5.2317693705
 C         -3.2724624414        4.0996235511        4.7594229386
 C         -2.2375087459        5.0065895037        5.4173877229
 C         -6.3152814622        0.4556929131       -2.9428461821
 C         -5.8892054086        1.7053170290       -2.1794477208
 C          6.4696673826       -4.3793666129        3.6993127207
 C          5.5257354685       -5.3152971082        2.9514196997
 C          5.5538847624        0.3398810261       -4.0307263774
 C          5.1556916575       -2.5297133761       -4.4638402143
 C         -2.9531550578        3.9117224197        3.2805379137
 C         -0.8367623838        4.4303831639        5.2440171866
 C         -5.1000920673       -0.4021558347       -3.2767488580
 C         -5.1457897501        1.3225813203       -0.9046405462
 C          6.3572599358       -2.9625723086        3.1483853418
 C          4.0899324149       -4.8153508769        3.0547235097
 C          1.2028687529        1.4809877638       -0.3071963278
 C         -0.4827935952       -2.4371185553       -2.5712237588
 C          2.9204673427        1.8876096220        2.9414468962
 C         -0.0697202818       -1.3108658550        0.9247244022
 C          1.1449078231        2.1537049094       -2.6177408855
 C          1.2479728641       -3.8529708921       -1.6756468798
 C         -0.4746782191        3.0385711200       -1.0554395224
 C         -1.0009477777       -3.9895477269       -0.8038173984
 C          3.4328920687        3.4414914981        1.1736341202
 C         -1.9721603033       -0.9116994936        2.3466212922
 C          4.6913061378        1.3901457714        1.3863316544
 C          0.0007483689       -1.9928498309        3.2323452884
 C          2.8848748082        0.5605519199       -1.8574918741
 C          1.8149684634       -2.1999015063       -3.4323978139
 C         -0.4106191131        2.3549350334        1.3282801144
 C         -2.7496559076       -2.4365435915       -1.5763165742
 C          1.5089188952        3.8988491013        2.6424536175
 C         -2.0529819655       -0.2169492867       -0.0324322278
 C          4.1184111362       -0.2568780284        3.1472901226
 C          1.9613379473       -2.4192481073        1.7777884454
 C          1.7322549370        1.4105554610       -1.5921876078
 C          0.8441906685       -2.8511367960       -2.5623788208
 C          0.1022986672        2.2885611605       -0.0313468991
 C         -1.4066637035       -2.9865084357       -1.6832587062
 C          2.6580286380        3.0845461250        2.2764261717
 C         -1.3582297943       -0.8119247623        1.0986356521
 C          3.9200283062        1.0309329877        2.4950046186
 C          0.6140303927       -1.9046678007        1.9812960936
 C          0.0534348120        2.9506873428       -2.3303708812
 C          0.3171077980       -4.4099506552       -0.8227201418
 C          4.4409037189        2.5912571221        0.7547168221
 C         -1.2777920294       -1.4937487072        3.3910568282
 C          4.4850954580       -0.4254267376       -3.2478139886
 C          3.9810533658       -1.6274212690       -4.0874482218
 C         -1.5583300313        3.3235162274        3.0938603569
 C         -0.4956544627        4.2539841809        3.7666559972
 C         -4.3554706502       -0.8115772674       -2.0086111091
 C         -3.9220115255        0.4690872862       -1.2210047020
 C          4.9231100585       -2.4452072647        3.2524744784
 C          3.9603148571       -3.3968069261        2.4963156521
 Br        -0.7583943168        3.9567430910       -3.7376411577
 Br         0.8678800474       -5.7753432047        0.3950666211
 Br         5.4894832601        3.0817868070       -0.7652608464
 Br        -2.1104683197       -1.6006850343        5.1076198916
 N          3.3714889577        0.4374539702       -3.0144127273
 N          3.0575653271       -2.3608227913       -3.2761520064
 N         -1.2312409547        3.2402337242        1.7063473868
 N         -3.1485562920       -1.4972432654       -2.3251952243
 N          0.7548520275        3.5911747210        3.6114392208
 N         -3.2930905851        0.0319626885       -0.0159832911
 N          4.8329404385       -1.1598518459        2.6291465781
 N          2.6293927331       -2.9293032730        2.7179796014
 H          7.1963703765       -0.9398562327       -3.4945291743
 H          7.4551483334       -0.0025962038       -4.9686931132
 H          7.0506539353       -2.4182913101       -5.4728935308
 H          5.7964276866       -1.3881786519       -6.1701667832
 H         -3.2725898238        3.1270550405        5.2567539390
 H         -4.2687582995        4.5320398809        4.8642414421
 H         -2.2807104324        5.9990049941        4.9627566609
 H         -2.4564166824        5.1131519806        6.4810347411
 H         -7.0122752163       -0.1241442344       -2.3336906778
 H         -6.8296115861        0.7353296116       -3.8632944011
 H         -6.7643353708        2.3044328989       -1.9243771724
 H         -5.2373362779        2.3129397236       -2.8110712511
 H          7.4992799218       -4.7271979321        3.6001261444
 H          6.2148778549       -4.3778021417        4.7614512553
 H          5.5877273503       -6.3220868641        3.3673332874
 H          5.8184132938       -5.3662747688        1.9004018260
 H          5.9029164248        1.1744591029       -3.4197209141
 H          5.0917927606        0.7512590674       -4.9294392812
 H          4.7792162187       -3.3593880205       -5.0657272348
 H          5.5787673553       -2.9437778702       -3.5470102744
 H         -2.9987004204        4.8679594685        2.7568496816
 H         -3.6766732193        3.2380572550        2.8179596115
 H         -0.7640373478        3.4579237754        5.7336515989
 H         -0.0941425115        5.0917586962        5.6951008130
 H         -4.4120212352        0.1494155080       -3.9193602131
 H         -5.4060426474       -1.3062439038       -3.8070293028
 H         -5.7990484111        0.7564703398       -0.2386719614
 H         -4.8147465116        2.2169795678       -0.3737172219
 H          6.6556171994       -2.9408883654        2.0988560449
 H          7.0131558802       -2.2851934658        3.6991301729
 H          3.7671409606       -4.8040453191        4.0968890422
 H          3.4151999256       -5.4707295559        2.5007157496
 H          1.6551197375        0.9104503161        0.4916051200
 H         -0.8170106265       -1.6608710493       -3.2420357429
 H          2.3077044790        1.6295313331        3.7912445410
 H          0.3984353350       -1.2428695173       -0.0470536423
 H          1.5605341876        2.0916392386       -3.6105282927
 H          2.2794326298       -4.1670389286       -1.6760903210
 H         -1.3226632712        3.6654698336       -0.8312464291
 H         -1.7045906697       -4.4236489762       -0.1095342529
 H          3.2405565891        4.3644080104        0.6475099286
 H         -2.9718622050       -0.5272854086        2.4699341334
 H          5.4642469281        0.7190323838        1.0476331101
 H          0.5386608859       -2.4530801845        4.0453975233
 H          3.3004830073        0.0375934016       -0.9813344421
 H          1.3974403691       -1.5388322732       -4.2043542939
 H         -0.0235431363        1.5848089758        2.0117362490
 H         -3.3737450421       -2.8475695616       -0.7691090322
 H          1.3062313311        4.7633315605        1.9932896165
 H         -1.4246033453       -0.0084961075       -0.9107940944
 H          3.5820607109       -0.3998708181        4.0955467627
 H          2.3526222859       -2.3330135709        0.7515430948
 H          4.9039242956       -0.8199795078       -2.3051255563
 H          3.4965463902       -1.2187515439       -4.9903366416
 H         -1.4766493410        2.3422264322        3.5896680779
 H         -0.5229608049        5.2224940885        3.2375984986
 H         -5.0084085255       -1.4027893867       -1.3430295448
 H         -3.2192911035        1.0157724523       -1.8710583778
 H          4.5946157929       -2.4126825481        4.3051285098
 H          4.2308264374       -3.3754955884        1.4257885289
 C        -12.6167937007        0.1546441194       -3.4851747567
 C        -11.1165080592       -0.1249123605       -3.3755473866
 O        -12.9542813132        1.3424247447       -2.7885633298
 C        -12.2051054865        2.4410205259       -3.2814240029
 C        -10.7051739275        2.1605663885       -3.1712951885
 O        -10.3676051604        0.9730703697       -3.8682367646
 H        -13.1975610055       -0.6446191244       -3.0244399457
 H        -10.8530428339       -0.3068125766       -2.3234787039
 H        -12.4694860455        2.6237764600       -4.3329777658
 H        -10.4288542763        2.0558048469       -2.1121559082
 H        -10.8344888954       -0.9844659003       -3.9838068038
 H        -12.4873129194        3.3000278742       -2.6725033078
 H        -10.1237088889        2.9598018028       -3.6309637266
 H        -12.8952847731        0.2576968609       -4.5439599125