142
-211.12737456
 C          3.3577343977       -6.9245079472        2.4368067097
 C          3.0949821741       -7.1705476181        0.9545795122
 C         -6.1037969428        1.6894061184        3.9019077657
 C         -6.4757901559        1.4334972890        2.4449014291
 C         -4.5552179160        3.4713025319       -4.8848409092
 C         -4.3311867037        2.8774233808       -6.2718659685
 C          7.4045851410        0.3871173803       -1.0128440131
 C          7.5957901540       -0.0984497021       -2.4459527247
 C          3.3718828556       -5.4290238007        2.7314161161
 C          1.7773056437       -6.5305879092        0.5345642246
 C         -4.7571003727        1.0536279182        4.2284417851
 C         -5.3929808360        1.9724211318        1.5169125119
 C         -4.5792628718        2.3692388532       -3.8317193184
 C         -3.0323550041        2.0798703182       -6.3068433541
 C          6.1017738038        1.1672300809       -0.8862414801
 C          6.4147272029       -0.9610212304       -2.8756916911
 C         -0.0384492117       -0.5933926907        3.3178540404
 C         -0.9964895246       -1.7220288639       -1.2862347534
 C          0.3350566403        1.0043901334       -0.0005665275
 C          0.6907693773       -0.8528281190       -4.4741206615
 C          2.3373458224       -0.5530829088        2.9258520844
 C         -2.0924008974       -3.4542325946       -0.0238557100
 C          1.1187521928        1.5158886164        3.1998102936
 C         -3.3980875470       -1.7312482177       -1.1064282173
 C         -0.9007064383        2.9860058723       -0.5891029893
 C         -0.4745903009       -2.9560136163       -4.3365966053
 C          1.4038288202        2.7419925253       -1.2786053201
 C          1.8474221430       -2.8116401721       -3.6831759342
 C          1.1437540851       -2.7260251188        2.9650108525
 C          0.3787194760       -3.4633650130       -0.2096259767
 C         -1.3356891029        1.5103502762        3.4256011252
 C         -2.2745333332        0.0495746724       -2.4154669792
 C         -2.0050544266        1.1998565902        0.7293430179
 C         -1.7295735477       -0.9340982778       -4.9786246372
 C          2.6921526055        0.7153014564       -0.6673526394
 C          3.0299449265       -0.6321834172       -3.7368787684
 C          1.1515459675       -1.2743355594        3.0889577923
 C         -0.9193146777       -2.8756515572       -0.5117537636
 C         -0.0674409398        0.7999710790        3.3555978659
 C         -2.2277199673       -1.1444946549       -1.5861077353
 C         -0.8479241735        1.7386021156        0.0316316645
 C         -0.4792063597       -1.5937922809       -4.6335760731
 C          1.4642071155        1.4985932394       -0.6466433827
 C          1.8484037240       -1.4474381220       -3.9858432253
 C          2.2999474511        0.8247388188        2.9957800500
 C         -3.3070589925       -2.8705444741       -0.3283715019
 C          0.2237431165        3.4593760775       -1.2396631328
 C          0.6913609370       -3.5407515087       -3.8747543393
 C          2.0518352681       -4.7767836858        2.3224859794
 C          1.7827220684       -5.0266946353        0.8160917976
 C         -3.6582400082        1.5938889355        3.3166991044
 C         -4.0444513804        1.3293208290        1.8237277520
 C         -3.2790224128        1.5720149477       -3.8470240786
 C         -3.0478922525        0.9609820135       -5.2685065034
 C          4.9059639179        0.3079855525       -1.3022013056
 C          5.1001916497       -0.1907708016       -2.7571216656
 Br         3.9184183170        1.8130109624        2.7656669715
 Br        -4.9106938411       -3.6531341653        0.3546577819
 Br         0.1391377241        5.1556024847       -2.1145019143
 Br         0.6855104140       -5.4054793941       -3.4577994749
 N          2.1384427393       -3.3610742775        2.5158996962
 N          0.4942155213       -4.4910934709        0.5124625674
 N         -2.4365567679        0.8942849323        3.5286299594
 N         -3.3479262577        0.4848462089       -2.9236053994
 N         -3.0202427306        1.9005510676        1.0094358685
 N         -1.7835308668        0.3096422055       -5.2069147892
 N          3.7247172805        1.1101297621       -1.2742249379
 N          4.0059530422       -1.0623817793       -3.0612567613
 H          2.5759766028       -7.4043517269        3.0298310632
 H          4.3154812993       -7.3607603275        2.7255245658
 H          3.0556353347       -8.2421490189        0.7530868715
 H          3.9096062154       -6.7463079544        0.3635817244
 H         -6.0502963503        2.7657600751        4.0809428049
 H         -6.8687122075        1.2753776733        4.5608275395
 H         -6.5917431559        0.3596304370        2.2816420818
 H         -7.4271083562        1.9144806492        2.2121149134
 H         -3.7512254010        4.1744313118       -4.6556518913
 H         -5.4989706095        4.0184592095       -4.8604198152
 H         -4.2876583663        3.6736179697       -7.0167111425
 H         -5.1669002434        2.2216766949       -6.5270344373
 H          8.2380909774        1.0266546990       -0.7185831450
 H          7.3824184804       -0.4701095997       -0.3364892562
 H          8.5168677572       -0.6781973119       -2.5259169632
 H          7.6796826065        0.7619829499       -3.1135059079
 H          3.5337751008       -5.2506124586        3.7964740470
 H          4.1802546826       -4.9436065489        2.1820056164
 H          1.5987061068       -6.6852879182       -0.5312349191
 H          0.9473990281       -6.9787315602        1.0830374594
 H         -4.8090153661       -0.0289908208        4.1016925164
 H         -4.4803130142        1.2592296071        5.2645408770
 H         -5.2958842874        3.0531606734        1.6321907988
 H         -5.6459555019        1.7648260326        0.4756688207
 H         -5.4081453168        1.6839640016       -4.0166625055
 H         -4.7103386092        2.7971724445       -2.8362376074
 H         -2.1821645917        2.7317090365       -6.0992191829
 H         -2.8843534761        1.6356861336       -7.2933817309
 H          6.1269086094        2.0518628955       -1.5244815077
 H          5.9516354930        1.4987228762        0.1429791648
 H          6.3496338690       -1.8518526126       -2.2488044665
 H          6.5360256196       -1.2858643194       -3.9111080388
 H         -0.9680347684       -1.1275069511        3.4396400444
 H         -0.0919788186       -1.2710771696       -1.6691982754
 H          0.3755899843        0.0426685613        0.4909458313
 H          0.6650075681        0.2002029777       -4.7078060283
 H          3.2554143738       -1.0893744121        2.7464585964
 H         -2.0227405634       -4.3465369185        0.5771372515
 H          1.1117552174        2.5951477434        3.2283675538
 H         -4.3467075032       -1.2800300084       -1.3489396388
 H         -1.8190398148        3.5496045558       -0.5533344146
 H         -1.3729054975       -3.5431962278       -4.4543365572
 H          2.2826107267        3.1157197966       -1.7788789643
 H          2.7493289657       -3.2646200963       -3.3038355382
 H          0.2085336894       -3.2242109694        3.2559879030
 H          1.2465650732       -2.9527587437       -0.6567297602
 H         -1.2813233332        2.6041555367        3.3268345011
 H         -1.3054245491        0.5434045067       -2.5795017380
 H         -1.9313647493        0.1377043422        1.0058675675
 H         -2.6277109636       -1.5690293086       -4.9705179277
 H          2.6556181856       -0.2395581855       -0.1191957466
 H          2.9992377181        0.3878962774       -4.1443278444
 H          1.2094594915       -5.2145461660        2.8845457927
 H          2.5815335283       -4.5274478644        0.2396948899
 H         -3.5423442884        2.6845457018        3.4409156851
 H         -4.0955267799        0.2347682473        1.7018507554
 H         -2.4153821807        2.2253778909       -3.6405488416
 H         -3.8731218647        0.2538577987       -5.4631964248
 H          4.8181353611       -0.5765163996       -0.6467997340
 H          5.1077789367        0.6975717362       -3.4113007356
 C          1.6064874503        7.3424380392        8.4335506673
 C          1.1777726920        6.9905512497        7.0077517223
 O          0.5292567145        7.9220818743        9.1499992834
 C         -0.5869405315        7.0486146183        9.1667076403
 C         -1.0172246095        6.7002210618        7.7406392191
 O          0.0588185361        6.1186263789        7.0224623149
 H          2.4039533112        8.0855141353        8.4275331297
 H          0.9184755014        7.9105030995        6.4642180908
 H         -0.3251918170        6.1274521881        9.7073869225
 H         -1.3522636849        7.6118240743        7.2250507319
 H          1.9717457103        6.4595598403        6.4823323970
 H         -1.3804279828        7.5772066741        9.6950843158
 H         -1.8170315021        5.9594824358        7.7446648230
 H          1.9451916455        6.4331909510        8.9510330356