142
-211.12828757
 C          2.7984659486       -6.7744962715        3.0611049651
 C          1.9816901800       -7.1790889532        1.8381726543
 C         -4.3008575773        3.6324838845        5.8331330000
 C         -5.2207747662        3.2377770832        4.6822278791
 C         -5.9213142210        3.7106610354       -3.1309407534
 C         -6.2848999813        2.8843801367       -4.3604448692
 C          6.1794133194       -0.9851520581       -2.9162637828
 C          5.7751960929       -1.7071422757       -4.1976066635
 C          3.1046449702       -5.2817249397        3.0237128702
 C          0.6913940921       -6.3711991458        1.7700965722
 C         -3.0255180349        2.7976181187        5.8065949140
 C         -4.5038340650        3.4036322256        3.3470624983
 C         -5.6899761156        2.8028435924       -1.9281916913
 C         -5.1887177363        1.8689565892       -4.6628551211
 C          5.1211381992        0.0395320083       -2.5262566156
 C          4.4184146062       -2.3795593599       -4.0225367252
 C          0.7754926356        0.1463258820        3.7150991481
 C         -1.9470041312       -1.4548112568        0.0499992292
 C          0.0869366236        1.1241846295        0.2194370493
 C         -1.4346995855       -1.4024671468       -3.6141927308
 C          2.8272371513       -0.3272021400        2.5458735220
 C         -2.7046248095       -2.7397872807        1.9394347247
 C          2.0569340794        1.9523799362        2.7675652771
 C         -4.0956373645       -0.9833470281        1.0305081461
 C         -1.0109615741        3.1991348243       -0.3187741658
 C         -2.7237951865       -3.2045988574       -2.6695909354
 C          0.8365914296        2.4165019339       -1.6679830878
 C         -0.3254785358       -3.4099065388       -2.8785199267
 C          1.4729634160       -2.2011198084        3.4397031398
 C         -0.4971070002       -3.2439446288        0.9315992895
 C         -0.1214620798        2.4506323416        3.8065028344
 C         -3.3222602419        0.3377577001       -0.9203372355
 C         -1.7787509585        1.8753344920        1.6329655197
 C         -3.8640168041       -1.0994602031       -3.2516464687
 C          1.9847263857        0.2903049904       -1.1158605777
 C          1.0217288996       -1.5276189324       -3.7656324162
 C          1.7049098624       -0.7754941121        3.2474880330
 C         -1.7323412900       -2.4733052617        0.9736933819
 C          0.9332821668        1.5084827193        3.4634711945
 C         -3.1213177014       -0.7065512478        0.0722116125
 C         -0.8984278301        2.0699363536        0.4914679188
 C         -2.6653892003       -1.9239578411       -3.2178324449
 C          0.9596011884        1.2906967292       -0.8516162160
 C         -0.2633263181       -2.1287743379       -3.4332419894
 C          2.9870319609        1.0263157626        2.3296705771
 C         -3.8648250990       -1.9895434176        1.9503512230
 C         -0.1462376212        3.3463089813       -1.3876356405
 C         -1.5533579446       -3.9269521846       -2.5186395188
 C          1.8183186493       -4.4589611821        2.9622185212
 C          0.9853659101       -4.8704792927        1.7209442875
 C         -2.2869040186        2.9666807663        4.4814333906
 C         -3.2327697403        2.5617816190        3.3026543250
 C         -4.5875844436        1.7879696605       -2.2134103316
 C         -4.9605454809        0.9393031631       -3.4738767357
 C          3.7543736545       -0.6229356196       -2.3411750667
 C          3.3459700830       -1.3593544544       -3.6428064267
 Br         4.5170972882        1.6412642874        1.3646943301
 Br        -5.1877760406       -2.3438105207        3.2829078544
 Br        -0.3242697038        4.8784712033       -2.5156577307
 Br        -1.6405681921       -5.6757675011       -1.7537908386
 N          2.1445204957       -3.0724897667        2.8199938866
 N         -0.2479403978       -4.1522210569        1.7703078623
 N         -1.1736048351        2.0825999979        4.4062309742
 N         -4.4464313210        0.8828520046       -1.1182546281
 N         -2.5199583080        2.7940569744        2.0875084523
 N         -3.8482892509        0.0816431102       -3.7066542526
 N          2.7778039537        0.3887421598       -2.0914607425
 N          2.1119167053       -2.0363895738       -3.3822782282
 H          2.2361093568       -7.0077553642        3.9679764389
 H          3.7334363877       -7.3365412914        3.0903552635
 H          1.7396492990       -8.2420143372        1.8831774508
 H          2.5678429156       -7.0050185806        0.9331845601
 H         -4.0438990084        4.6908611406        5.7479347752
 H         -4.8107056658        3.4850018468        6.7864831890
 H         -5.5274620453        2.1962510701        4.8021865349
 H         -6.1190490238        3.8570784614        4.6923303311
 H         -5.0134692477        4.2835506249       -3.3329564137
 H         -6.7220935927        4.4164867203       -2.9048388150
 H         -6.4215696048        3.5383236308       -5.2231602613
 H         -7.2264386358        2.3598965337       -4.1818825663
 H          7.1356280975       -0.4789798448       -3.0571520419
 H          6.2973320048       -1.7115579594       -2.1092377993
 H          6.5226866470       -2.4591597727       -4.4557045488
 H          5.7219540229       -0.9889005113       -5.0187314353
 H          3.6665455309       -4.9845989608        3.9116107844
 H          3.7087733606       -5.0420055944        2.1470511680
 H          0.1156552326       -6.6428256918        0.8832754320
 H          0.0730664958       -6.5709065101        2.6465921157
 H         -3.2622955168        1.7404654287        5.9373464669
 H         -2.3573666400        3.0966117704        6.6168741898
 H         -4.2329700532        4.4485975457        3.1877439259
 H         -5.1524623671        3.0936771237        2.5257748136
 H         -6.6035336558        2.2604080305       -1.6794513230
 H         -5.3994399861        3.3925665006       -1.0568970776
 H         -4.2508973765        2.3797863614       -4.8870304116
 H         -5.4589383374        1.2632693982       -5.5303037244
 H          5.0308004691        0.8030603511       -3.3002849245
 H          5.3945359590        0.5356014244       -1.5932949505
 H          4.4696041767       -3.1343510522       -3.2359872381
 H          4.1159684139       -2.8761155586       -4.9468060347
 H         -0.1021718397       -0.1758839257        4.2536855663
 H         -1.1990300208       -1.2454710584       -0.7015730336
 H          0.1785947795        0.2558392193        0.8563796965
 H         -1.4115807600       -0.4089853516       -4.0345529415
 H          3.5426116323       -1.0495170637        2.1866857935
 H         -2.5288456978       -3.5289390022        2.6525724131
 H          2.1925631151        3.0039812840        2.5641816068
 H         -5.0038347162       -0.4024198923        1.0361905372
 H         -1.7732174823        3.9285344479       -0.0968147742
 H         -3.6693179956       -3.6214621253       -2.3568834623
 H          1.5151896112        2.5360598245       -2.4970950815
 H          0.5883214132       -3.9655360237       -2.7414223086
 H          0.6580316136       -2.4636868032        4.1283507965
 H          0.1991051284       -2.9804276729        0.1194338790
 H          0.0276682668        3.4852875430        3.4644015724
 H         -2.4268808644        0.6140411560       -1.4964572243
 H         -1.7457783090        0.8721279283        2.0829758908
 H         -4.7663901311       -1.5448044856       -2.8075354179
 H          2.0200764530       -0.5516766685       -0.4062517317
 H          0.9767492990       -0.5902598204       -4.3372115648
 H          1.1941869381       -4.6421652104        3.8532443170
 H          1.5710344113       -4.6199378641        0.8187849754
 H         -1.9953282749        4.0196966806        4.3240785169
 H         -3.4652370260        1.4927748542        3.4387881105
 H         -3.6369182817        2.2954507727       -2.4457933667
 H         -5.8787034512        0.3759211494       -3.2325170327
 H          3.7922543635       -1.3674906125       -1.5264293117
 H          3.2348458496       -0.5970112609       -4.4324153132
 C          8.9229588064        6.4208133455       -1.2583567713
 C          8.4900686789        5.6892812615       -2.5306296619
 O          8.2697014070        5.8769037040       -0.1235862499
 C          8.5321544826        4.4874356267       -0.0148197599
 C          8.1017699956        3.7560009809       -1.2875372739
 O          8.7557305067        4.3011055289       -2.4219507834
 H          8.6403396498        7.4729449861       -1.2979578202
 H          7.4142369821        5.8455855739       -2.6957717764
 H          9.6072017187        4.3301916374        0.1548215664
 H          7.0132918013        3.8448490866       -1.4112012223
 H          9.0545613238        6.0419495903       -3.3939925193
 H          7.9633935781        4.1344057319        0.8452117520
 H          8.3855438200        2.7047312845       -1.2455595522
 H         10.0118376680        6.3295292120       -1.1342423863