142
-211.12812234
 C          2.7602069519       -6.5492575378        3.1786803313
 C          1.8769803191       -6.7786032092        1.9565775752
 C         -2.3510350131        4.9053429787        6.2087035677
 C         -3.3353285220        4.7111258948        5.0597519896
 C         -4.0032375045        5.4410434235       -2.7127424191
 C         -4.5222929464        4.7162135593       -3.9504047225
 C          7.0501928977       -1.3326477384       -2.7673148132
 C          6.5061046231       -1.9571859441       -4.0480584102
 C          3.3261044565       -5.1339641538        3.1650615033
 C          0.7492440862       -5.7544994424        1.9169384698
 C         -1.2497727036        3.8527844440        6.1507104198
 C         -2.6101721926        4.7710626927        3.7199797202
 C         -3.9322469603        4.4857179803       -1.5266856042
 C         -3.6331465249        3.5227447293       -4.2807695834
 C          6.1960956814       -0.1406401260       -2.3527698978
 C          5.0545451775       -2.3809146201       -3.8558217814
 C          2.0012710294        0.6078829141        3.9699594179
 C         -0.9922758016       -0.4109842687        0.3286334216
 C          1.4739055240        1.7719486110        0.4973856177
 C         -0.5247277448       -0.3859829801       -3.3377569287
 C          3.9273704055       -0.2001546275        2.7705751597
 C         -1.9485965404       -1.5839594299        2.2005971627
 C          3.5756315446        2.1751737422        3.0389092011
 C         -3.0137130299        0.4118802983        1.3470551397
 C          0.7595911096        4.0198740336        0.0109523781
 C         -2.1002200162       -1.9428741698       -2.3911621101
 C          2.4241926764        2.9469315822       -1.3763993883
 C          0.2192187688       -2.5700355746       -2.6468727731
 C          2.2694188358       -1.8205171232        3.6482478660
 C          0.1254144412       -2.4482039823        1.1542207525
 C          1.5300244848        3.0329825300        4.1120220854
 C         -2.0367914510        1.6168690295       -0.5882516582
 C         -0.2162849476        2.8146545705        1.9466847067
 C         -2.8545067638        0.3403906844       -2.9299835833
 C          3.1790999438        0.6393162755       -0.8773362196
 C          1.8673380726       -0.9433349707       -3.5323346273
 C          2.7487579454       -0.4552727434        3.4767782621
 C         -0.9532828343       -1.4721651804        1.2280220401
 C          2.3966540868        1.9248250963        3.7398274187
 C         -2.0149957471        0.5328800338        0.3815635434
 C          0.6756640788        2.8726029965        0.7989477870
 C         -1.8225308988       -0.6856307612       -2.9260396954
 C          2.3518313741        1.8012159857       -0.5819523696
 C          0.5008265407       -1.3119141412       -3.1860964027
 C          4.3234333889        1.1073146436        2.5752035974
 C         -2.9566581404       -0.6399444744        2.2428494540
 C          1.6265638877        4.0316598352       -1.0661683697
 C         -1.0754580134       -2.8648088581       -2.2710203265
 C          2.2059039588       -4.0951125368        3.1313040474
 C          1.3031034977       -4.3284730520        1.8924986657
 C         -0.5016517567        3.9151206000        4.8216351866
 C         -1.5129760571        3.7141686173        3.6448336680
 C         -3.0341683665        3.2933922855       -1.8400331610
 C         -3.5669467806        2.5475016663       -3.1083100537
 C          4.7376987205       -0.5550991829       -2.1465650561
 C          4.1855924708       -1.1918902949       -3.4478646927
 Br         5.9309373681        1.4592287458        1.6041445893
 Br        -4.3086298706       -0.7837564030        3.5858189633
 Br         1.7146775625        5.5936247742       -2.1635232767
 Br        -1.4607914724       -4.5814672511       -1.5251892105
 N          2.7720001927       -2.7861333085        3.0084484403
 N          0.2165772863       -3.4051069896        1.9705905122
 N          0.4336763598        2.8470275740        4.7167656449
 N         -3.0470917072        2.3583020374       -0.7610955312
 N         -0.7782247934        3.8411191271        2.4270752921
 N         -2.6312477652        1.5067896677       -3.3679757029
 N          3.9583726053        0.6088665464       -1.8684365424
 N          2.8551402153       -1.6435303812       -3.1741545746
 H          2.1710373442       -6.6966163420        4.0865441070
 H          3.5808055631       -7.2685681508        3.1889114995
 H          1.4513704486       -7.7828533216        1.9838504381
 H          2.4788518214       -6.6921746599        1.0492937070
 H         -1.9057387566        5.9007639918        6.1432113711
 H         -2.8728778648        4.8316279218        7.1641568425
 H         -3.8278105903        3.7415564734        5.1625295980
 H         -4.1040570401        5.4848121792        5.0917703968
 H         -3.0073492129        5.8410247113       -2.9162982377
 H         -4.6588855923        6.2778912361       -2.4671261872
 H         -4.5442294317        5.3985935921       -4.8015581990
 H         -5.5424003477        4.3698663264       -3.7690485874
 H          8.0794924328       -1.0035626589       -2.9179046952
 H          7.0479862658       -2.0769977127       -1.9680546006
 H          7.1048581783       -2.8264750534       -4.3251021983
 H          6.5682751706       -1.2314595294       -4.8620191262
 H          3.9377339104       -4.9583713504        4.0524394450
 H          3.9573102461       -4.9881497041        2.2868295177
 H          0.1283155180       -5.9023341830        1.0313818225
 H          0.1116002944       -5.8595051097        2.7960291729
 H         -1.6746070031        2.8537902919        6.2613684025
 H         -0.5329266479        4.0062603966        6.9599926795
 H         -2.1555912450        5.7526609385        3.5767709070
 H         -3.3108461658        4.6003485690        2.9007041302
 H         -4.9273941311        4.1138495814       -1.2774861028
 H         -3.5333337098        4.9977409684       -0.6492198655
 H         -2.6199359409        3.8573184386       -4.5092210250
 H         -4.0176476282        2.9907413859       -5.1534046270
 H          6.2270364370        0.6328413332       -3.1216861846
 H          6.5697469914        0.2935507679       -1.4234868163
 H          4.9834635835       -3.1425095437       -3.0774162184
 H          4.6546222741       -2.8046620824       -4.7793115215
 H          1.0846732407        0.4364106475        4.5128000912
 H         -0.2257877642       -0.3202526968       -0.4279329799
 H          1.4150209118        0.8886990235        1.1175080943
 H         -0.3309857244        0.5937942587       -3.7459937956
 H          4.5004280342       -1.0312052214        2.3917199884
 H         -1.9091908530       -2.4079740943        2.8946080519
 H          3.8940253012        3.1896429173        2.8516696707
 H         -3.8040460580        1.1445545481        1.3771204410
 H          0.1424785694        4.8693030002        0.2558390241
 H         -3.0993390675       -2.1874831324       -2.0637466139
 H          3.1052371693        2.9600487971       -2.2120004056
 H          1.0210935559       -3.2817910933       -2.5332062332
 H          1.4254841479       -1.9468017801        4.3404625125
 H          0.8506247636       -2.2933887628        0.3394158133
 H          1.8592850387        4.0311159598        3.7877962774
 H         -1.1127214345        1.7401896126       -1.1720839766
 H         -0.3603362362        1.8123649921        2.3763690243
 H         -3.8169798574        0.0567144445       -2.4794358485
 H          3.0785790404       -0.2050039995       -0.1767436302
 H          1.9814955553       -0.0038899730       -4.0905972790
 H          1.5660973849       -4.1810122045        4.0259091141
 H          1.9162566955       -4.1664771220        0.9883727555
 H         -0.0259868664        4.9016063286        4.6830110817
 H         -1.9341501892        2.7020410126        3.7610251974
 H         -2.0099593209        3.6252551277       -2.0770612852
 H         -4.5697599533        2.1561084753       -2.8637367739
 H          4.6585540458       -1.3049865856       -1.3396842167
 H          4.1993988198       -0.4119179456       -4.2279100865
 C         -6.7527879804       -6.0035503483       -6.0812803954
 C         -7.7221497650       -5.5869046484       -4.9735841679
 O         -5.5971973246       -5.1815332225       -6.0649411268
 C         -4.9596511949       -5.2414263890       -4.8003503897
 C         -5.9278166543       -4.8293731949       -3.6892807249
 O         -7.0863380040       -5.6446355180       -3.7077052516
 H         -7.2047158114       -5.8743874005       -7.0647713081
 H         -8.0763025709       -4.5626509729       -5.1607043707
 H         -4.6018260454       -6.2641160107       -4.6143909880
 H         -6.2175335853       -3.7767518528       -3.8256974758
 H         -8.5701670921       -6.2695003211       -4.9194970844
 H         -4.1128161833       -4.5573845203       -4.8564259120
 H         -5.4760999900       -4.9695355953       -2.7071994209
 H         -6.4589240036       -7.0531761691       -5.9376954828