142
-211.13077928
 C          0.7646831144       -7.1187077069        2.0595705548
 C          0.1743211851       -7.1520789474        0.6535259268
 C         -4.4503599101        4.2557741987        5.1596371859
 C         -5.1245723002        4.2467569013        3.7914717731
 C         -3.8151466099        5.9041650437       -3.7235345512
 C         -4.0330714007        5.3633487470       -5.1330374836
 C          6.5995302032       -1.6711768069       -1.9874510947
 C          6.3590209197       -2.0863910096       -3.4353050992
 C          1.3818532496       -5.7538237135        2.3423674592
 C         -0.8650916324       -6.0501907838        0.4870817014
 C         -3.4094274462        3.1454911710        5.2479744933
 C         -4.0867282630        4.4012612328        2.6853943448
 C         -4.0908556468        4.8194939967       -2.6882799415
 C         -3.1436620039        4.1504968519       -5.3822684864
 C          5.7286198155       -0.4739277195       -1.6261261373
 C          4.8863791858       -2.4134271673       -3.6543712599
 C          0.1498228632       -0.0636138006        3.5424664045
 C         -1.9257155808       -0.4522998791       -0.7991060155
 C          0.5461469891        1.4804417666        0.2223417074
 C         -0.5488768090       -0.0609484868       -4.2110837567
 C          2.2820085740       -0.8690691574        2.7633341953
 C         -3.3621636379       -1.7495422370        0.6318835548
 C          1.9682922161        1.4830646889        3.2211394562
 C         -4.0987236088        0.3973114935       -0.2025719555
 C          0.0788428108        3.8139096408       -0.1485436769
 C         -2.3803485145       -1.5916900694       -3.8881517042
 C          1.9879498623        2.7737862951       -1.2068722932
 C         -0.1020256730       -2.3609062167       -3.6528057771
 C          0.3929227146       -2.4555310606        3.0032190730
 C         -1.1345167638       -2.6422731782        0.0101333161
 C         -0.2449238064        2.3583881830        3.8598159549
 C         -2.6208218320        1.7336272509       -1.6810027763
 C         -1.4044751735        2.4851573593        1.3301596371
 C         -2.8718225388        0.7887411440       -4.2930433466
 C          2.4848281737        0.3756313902       -0.8275548774
 C          1.7884520622       -0.7762884333       -3.8970609474
 C          0.9545454554       -1.1163897448        3.1219816026
 C         -2.1545740697       -1.6046792924       -0.0535038921
 C          0.6424047964        1.2402380901        3.5780386615
 C         -2.8882964985        0.5510858928       -0.8773312980
 C         -0.2515191400        2.5990461489        0.4507731652
 C         -1.9207443653       -0.3058491482       -4.1698364562
 C          1.6666749200        1.5588054496       -0.5989019199
 C          0.3628129466       -1.0744538833       -3.9390629952
 C          2.7648055520        0.4212673891        2.8307178311
 C         -4.3086120966       -0.7466299646        0.5454107474
 C          1.1880061200        3.8754968302       -0.9718901040
 C         -1.4616317995       -2.5969677706       -3.6433805453
 C          0.3456991642       -4.6409908383        2.1886609821
 C         -0.2550634417       -4.6738484336        0.7600884843
 C         -2.3524463467        3.2965182502        4.1570692113
 C         -3.0462473178        3.2882805862        2.7545776081
 C         -3.1957672871        3.6062531793       -2.9187345624
 C         -3.4203666756        3.0481722644       -4.3631364647
 C          4.2458080840       -0.7887965328       -1.8339633794
 C          4.0013638717       -1.2180633340       -3.3038236733
 Br         4.5697280637        0.7616540213        2.3312534613
 Br        -5.9539192275       -0.9378920315        1.4976204798
 Br         1.6185820088        5.5333446937       -1.8179451479
 Br        -2.0998053194       -4.3534200509       -3.2457057364
 N          0.9806399488       -3.3694775496        2.3605042630
 N         -1.2861956600       -3.6875388428        0.6991956894
 N         -1.4632100856        2.1846755039        4.1567555473
 N         -3.5222838352        2.5606852662       -2.0027438426
 N         -2.0270879623        3.4922894705        1.7755985368
 N         -2.4950845653        1.9767892794       -4.5141515740
 N          3.4816914515        0.3943629975       -1.5996452548
 N          2.6242916959       -1.5924181047       -3.4176947711
 H         -0.0221952323       -7.3203710004        2.7897445961
 H          1.5278757425       -7.8917816142        2.1640875499
 H         -0.2929146940       -8.1199186200        0.4654353697
 H          0.9709580763       -7.0140980938       -0.0807916027
 H         -3.9657140451        5.2214655374        5.3208246215
 H         -5.1956403556        4.1172244616        5.9444713971
 H         -5.6609462685        3.3047999373        3.6563169401
 H         -5.8493615304        5.0597880931        3.7265870613
 H         -2.7836610358        6.2488872793       -3.6214678866
 H         -4.4743065343        6.7548567691       -3.5435046578
 H         -3.8062013670        6.1362641818       -5.8690722627
 H         -5.0801853107        5.0771642755       -5.2558761707
 H          7.6488678607       -1.4108114585       -1.8409919644
 H          6.3636914956       -2.5071272764       -1.3256563878
 H          6.9655652057       -2.9597994623       -3.6806312893
 H          6.6538278426       -1.2728473113       -4.1017147099
 H          1.7836103524       -5.7174853649        3.3570540238
 H          2.2008447036       -5.5596454917        1.6479125842
 H         -1.2714109429       -6.0568169014       -0.5260956532
 H         -1.6924046307       -6.2019905714        1.1820307843
 H         -3.8855872941        2.1702304655        5.1342844453
 H         -2.9111176063        3.1664985755        6.2193934424
 H         -3.5743426891        5.3604498018        2.7753924395
 H         -4.5667002939        4.3650979067        1.7058229403
 H         -5.1320068878        4.4973853095       -2.7423936258
 H         -3.9061698829        5.1986981064       -1.6816260480
 H         -2.0917102078        4.4312328839       -5.3094209852
 H         -3.3174884098        3.7497336914       -6.3830473420
 H          5.9867261057        0.3829574397       -2.2502396592
 H          5.8802972203       -0.1879483574       -0.5836093218
 H          4.5895506456       -3.2570294113       -3.0288964184
 H          4.7065205063       -2.6867937782       -4.6961278854
 H         -0.8799316785       -0.2288333095        3.8195959324
 H         -0.9934086775       -0.3350825543       -1.3331490597
 H          0.2936547005        0.5431342077        0.6976592826
 H         -0.2146906589        0.9416584157       -4.4286445219
 H          2.9097134353       -1.6912132902        2.4625729344
 H         -3.5297993120       -2.6441317410        1.2096821076
 H          2.3639151719        2.4875604757        3.2409395642
 H         -4.8407683357        1.1761378066       -0.2741248063
 H         -0.5416734675        4.6755364336        0.0384640208
 H         -3.4397195276       -1.7965161765       -3.8510653552
 H          2.8567008610        2.8245153673       -1.8431334117
 H          0.6126157418       -3.1405528246       -3.4430973239
 H         -0.5880744457       -2.6052564992        3.4763149275
 H         -0.2275196014       -2.4524074826       -0.5858245076
 H          0.1935851261        3.3607103502        3.7455701596
 H         -1.5751082124        1.8535421807       -2.0005239053
 H         -1.6923243870        1.4561439949        1.5915606435
 H         -3.9281299508        0.5286742477       -4.1304684670
 H          2.1733149454       -0.5299424606       -0.2828070835
 H          2.0804757623        0.2125355482       -4.2767349541
 H         -0.4860224720       -4.7815319139        2.9000935819
 H          0.5585598611       -4.4613809114        0.0441595260
 H         -1.8188286409        4.2579074869        4.2554957460
 H         -3.5215969541        2.2995935293        2.6447719874
 H         -2.1315295399        3.8859684036       -2.8518076430
 H         -4.4682915509        2.7068984199       -4.4255830891
 H          3.9298280290       -1.6192788127       -1.1780463402
 H          4.2430460223       -0.3524741646       -3.9435394881
 C          6.3533451178       -4.3118445721        3.4706206058
 C          5.7613652044       -3.0766279879        2.7912584085
 O          7.1007998935       -3.9407577285        4.6164893911
 C          6.2945145633       -3.2098509318        5.5237742900
 C          5.7003522150       -1.9752665679        4.8440368539
 O          4.9516229200       -2.3483415526        3.7001556641
 H          7.0485114547       -4.8260289441        2.8069125266
 H          6.5712341909       -2.4299416452        2.4250992443
 H          5.4817052347       -3.8524261278        5.8935484285
 H          6.5074325133       -1.2913526913        4.5451032882
 H          5.1110617718       -3.3652303275        1.9656186860
 H          6.9458924996       -2.9229707185        6.3493059165
 H          5.0070018089       -1.4618304631        5.5109235236
 H          5.5419143607       -4.9932234791        3.7658126639