142
-211.12724284
 C         -0.6246979845       -6.5447135086        1.9031226111
 C         -1.2063883288       -6.3578737715        0.5055897964
 C         -2.5671490275        5.6678550207        5.6402059016
 C         -3.2404904078        5.9213809920        4.2952464541
 C         -1.7614391521        7.4967377141       -3.1973881738
 C         -2.1381456465        7.0946249365       -4.6197549003
 C          6.4227039142       -2.5383196470       -2.0846273666
 C          6.0556474605       -2.8249677095       -3.5370274996
 C          0.3331564516       -5.4060415436        2.2346558458
 C         -1.9165400554       -5.0136084810        0.4000538683
 C         -1.8641925538        4.3149973864        5.6381794534
 C         -2.2175633218        5.8544071190        3.1668898152
 C         -2.2720459132        6.4651524788       -2.1974263901
 C         -1.5826794151        5.7132829059       -4.9470178068
 C          5.8998261968       -1.1699115168       -1.6650597720
 C          4.5452296451       -2.7486476808       -3.7274505026
 C          0.6635504635        0.3588573145        3.6744425197
 C         -1.4892577110        0.7265621708       -0.6083358367
 C          1.4213093668        1.9544648686        0.4086874897
 C         -0.1177949797        0.9328762187       -4.0319709308
 C          2.4861438834       -0.9426115905        2.7876144112
 C         -3.1946963185       -0.2300009198        0.7956083329
 C          2.8229162099        1.3796734862        3.3624669906
 C         -3.3597759737        2.0755072279        0.0864742325
 C          1.5744806685        4.3457668066        0.1665380671
 C         -2.2711317581       -0.1034640145       -3.7297938817
 C          3.1273549455        2.9046610399       -0.9989352291
 C         -0.2570306743       -1.4312157479       -3.5933502370
 C          0.2492334254       -1.9827319897        3.0236228890
 C         -1.2850510592       -1.6351139926        0.0768144147
 C          0.9408082596        2.7800180855        4.1126132268
 C         -1.6124092715        3.0612740287       -1.3711350833
 C         -0.1781927446        3.3708167438        1.6256372642
 C         -2.1505782475        2.3423679323       -4.0103403985
 C          2.9911144821        0.4428533935       -0.7453473802
 C          1.9679628631       -0.3622847413       -3.8195597897
 C          1.1485827654       -0.8469752591        3.1809931407
 C         -1.9995685132       -0.3656416167        0.0867844735
 C          1.4877657267        1.4807086363        3.7514894740
 C         -2.1606432143        1.9469400358       -0.6133253031
 C          0.9480892956        3.2277183247        0.7159779320
 C         -1.5062505982        1.0384839468       -3.9637650628
 C          2.5101023049        1.7835970160       -0.4409776875
 C          0.5127984723       -0.2896416001       -3.8325309698
 C          3.2989503746        0.1674123328        2.8953845131
 C         -3.8495715106        0.9863929445        0.7835546500
 C          2.6470686500        4.1619506623       -0.6865350593
 C         -1.6319963493       -1.3186864597       -3.5582849070
 C         -0.3706485085       -4.0526356793        2.1420556124
 C         -0.9635348671       -3.8606426957        0.7219940786
 C         -0.8254989594        4.2365200162        4.5222331145
 C         -1.5185207566        4.4989502518        3.1442941564
 C         -1.7170863767        5.0787968900       -2.5087673861
 C         -2.1073135406        4.6671931916       -3.9671278634
 C          4.3819896673       -1.0861161294       -1.8380025389
 C          4.0062359983       -1.3799404809       -3.3134300983
 Br         5.1271989909        0.0406479651        2.3549726538
 Br        -5.4749984333        1.1760055825        1.7701098760
 Br         3.4811272847        5.6949953489       -1.4649161033
 Br        -2.6861884814       -2.8766556344       -3.2240511866
 N          0.5785734437       -3.0028525197        2.3561765591
 N         -1.6985499063       -2.6364590816        0.7224653963
 N         -0.2741505858        2.9265704560        4.4361360834
 N         -2.2790958196        4.1051743774       -1.6284749400
 N         -0.4981662556        4.4786411278        2.1456827568
 N         -1.4885084459        3.4054941486       -4.1941199178
 N          3.9517447906        0.2419048803       -1.5374208040
 N          2.5774848844       -1.3856430150       -3.4005153940
 H         -1.4349363215       -6.5626101396        2.6354483131
 H         -0.0946742886       -7.4967564526        1.9642867953
 H         -1.9141330288       -7.1581628501        0.2841001301
 H         -0.4035828076       -6.4042494183       -0.2334117657
 H         -1.8370724061        6.4564060417        5.8368027612
 H         -3.3095930777        5.6888746062        6.4395769317
 H         -4.0145070947        5.1689079485        4.1280965747
 H         -3.7182989028        6.9023577006        4.2955199207
 H         -0.6747476891        7.5730463081       -3.1167998877
 H         -2.1864543391        8.4733716746       -2.9603691933
 H         -1.7434068382        7.8222478545       -5.3306579238
 H         -3.2259834434        7.0813092493       -4.7192701759
 H          7.5061926331       -2.5645599076       -1.9589226420
 H          5.9899419101       -3.3062040091       -1.4396902292
 H          6.4078088393       -3.8172722427       -3.8238285434
 H          6.5416647012       -2.0936624647       -4.1866702733
 H          0.7314413606       -5.5238283175        3.2445047238
 H          1.1741232445       -5.4054368192        1.5391622147
 H         -2.3121816932       -4.8675122425       -0.6068539872
 H         -2.7529036621       -4.9715383288        1.0994796038
 H         -2.5885796159        3.5120379527        5.4923440944
 H         -1.3609268741        4.1462717828        6.5925114681
 H         -1.4620517018        6.6318132075        3.2917245061
 H         -2.7046042265        6.0079828692        2.2022687683
 H         -3.3617875877        6.4155686659       -2.2246204584
 H         -1.9712503078        6.7377712530       -1.1842316090
 H         -0.4927964656        5.7210723868       -4.8935752649
 H         -1.8688356277        5.4164851887       -5.9581324515
 H          6.3577897003       -0.3873678293       -2.2719730488
 H          6.1429605040       -0.9708822183       -0.6196239068
 H          4.0495888550       -3.5102727547       -3.1230913043
 H          4.2827358219       -2.9247255539       -4.7726966964
 H         -0.3669986879        0.4590713493        3.9780524870
 H         -0.5660680872        0.6272213334       -1.1615223852
 H          0.9406930466        1.0906611977        0.8457380897
 H          0.4549297159        1.8292391467       -4.2129195673
 H          2.8530465727       -1.8821819908        2.4066164554
 H         -3.5811418669       -1.0810285786        1.3328329195
 H          3.4727523434        2.2402306697        3.4146795679
 H         -3.8748475407        3.0225662651        0.0728786554
 H          1.2043591584        5.3275909128        0.4143567842
 H         -3.3472288779       -0.0372685873       -3.6730597975
 H          3.9687277736        2.7628698043       -1.6578776992
 H          0.2410354660       -2.3751560148       -3.4400374261
 H         -0.7389795297       -1.8779370322        3.4924574596
 H         -0.3657386551       -1.6586870378       -0.5297835915
 H          1.6337577742        3.6308357909        4.0360501210
 H         -0.5763585416        2.9278217834       -1.7157717860
 H         -0.7275854328        2.4422318186        1.8395964654
 H         -3.2343263843        2.3508245365       -3.8228257256
 H          2.4608380999       -0.3783251188       -0.2370992157
 H          2.4941723790        0.5385503939       -4.1645830070
 H         -1.2078637824       -3.9980176923        2.8583866095
 H         -0.1256851957       -3.8374818080        0.0029838750
 H         -0.0476734555        5.0089826859        4.6525895935
 H         -2.2466731664        3.6842754157        2.9976522535
 H         -0.6154690910        5.0775648562       -2.4652256988
 H         -3.2087104779        4.6055973437       -4.0088311378
 H          3.8778654439       -1.8353443603       -1.2022547796
 H          4.4499478119       -0.5810597391       -3.9313310419
 C         -2.1212884030      -12.0194931403        1.7667128839
 C         -2.8253223818      -13.2714861341        2.2937454399
 O         -0.7234740091      -12.1027456498        1.9893385105
 C         -0.1898861364      -13.2678691245        1.3829960111
 C         -0.8939402160      -14.5196595642        1.9103401841
 O         -2.2914011482      -14.4363584626        1.6869324362
 H         -2.4618061996      -11.1291478533        2.2953303589
 H         -2.6977998180      -13.3340906335        3.3842182110
 H         -0.3179283933      -13.2063160557        0.2925618932
 H         -0.6993902591      -14.6251081635        2.9875708645
 H         -3.8862065350      -13.2565387361        2.0438283545
 H          0.8710636606      -13.2834956900        1.6326595641
 H         -0.5529438292      -15.4102413814        1.3823300097
 H         -2.3164093336      -11.9140978278        0.6896842516