142
-211.12675346
 C          4.8841637968       -4.4161932546        3.6597599650
 C          5.9826151610       -4.5181020464        2.6074419295
 C         -4.5732375875        6.0500158954        1.0731508897
 C         -5.3688084358        5.5345473677        2.2672882081
 C          2.6164475025        6.8822984532       -2.0617421940
 C          1.5432659080        7.0244961576       -0.9875216181
 C         -3.3299222552       -6.2440524973       -2.3254006412
 C         -2.5605229762       -5.6568280552       -3.5028747458
 C          4.3332278137       -2.9967898276        3.7125087759
 C          5.4392212644       -4.1192997998        1.2405616166
 C         -3.0994146513        5.6912917943        1.2228911920
 C         -5.1990796852        4.0261485705        2.4022787963
 C          3.1179105561        5.4444437797       -2.1242562034
 C          0.3836276132        6.0747574027       -1.2702009181
 C         -2.9157252006       -5.5539646248       -1.0317298425
 C         -2.8305955372       -4.1617241219       -3.6114328995
 C          0.6871106565        1.0353211990        1.5142945582
 C          3.2524828939        0.4804560718       -1.8768351202
 C         -2.9820169244       -0.4594291248        2.0404646732
 C         -1.7167257310        1.3448295736       -2.0226170230
 C          2.8347569605        1.5613326872        2.4690322277
 C          3.1227717256       -1.8238814999       -2.5625421555
 C          1.1896363263        3.3012470907        2.1591532711
 C          2.0849398628       -0.0972866528       -3.9020567704
 C         -1.3641731601       -0.3311951182        3.8205719339
 C         -3.5205010644        2.8983125912       -2.3964088417
 C         -1.5532156364       -2.3428712804        2.4916324263
 C         -3.9199658501        0.5219547140       -2.5418350678
 C          2.3192213611       -0.7874937063        1.9040402618
 C          4.2709406199       -1.2318189633       -0.4411084268
 C         -1.0489254815        2.7731309653        1.2575148169
 C          2.1168694712        2.2604024178       -3.1503845237
 C         -2.7036511931        1.6682759827        3.2576924260
 C         -1.2875959163        3.7897550917       -1.8622493444
 C         -3.1627803004       -2.4543115515        0.6077340538
 C         -2.0970508412       -1.1017272144       -2.1701156953
 C          1.9420806444        0.6201430314        1.9526769346
 C          3.5516926764       -0.8564692871       -1.6507187825
 C          0.2976991861        2.3671938057        1.6326771441
 C          2.5037984968        0.8666795515       -2.9864179983
 C         -2.3688008893        0.2656967214        3.0608513608
 C         -2.1801803381        2.6588298786       -2.0993002271
 C         -2.5683899796       -1.7499729495        1.7372696765
 C         -2.5758421239        0.2744839919       -2.2458360133
 C          2.4480799437        2.8843428464        2.5481682924
 C          2.4092866184       -1.4235641695       -3.6743927837
 C         -0.9845234628       -1.6295258278        3.5278025526
 C         -4.3679404318        1.8244486587       -2.6065641538
 C          3.7732615660       -2.5703174985        2.3551342999
 C          4.8719696991       -2.7015158462        1.2637413846
 C         -2.9028013628        4.1833508046        1.3544357299
 C         -3.7289629819        3.6470736230        2.5676860255
 C          1.9724143995        4.4666478366       -2.3913598236
 C          0.8771154607        4.6285291800       -1.3025542572
 C         -3.1429851148       -4.0444504736       -1.1038059017
 C         -2.4240332441       -3.4261012536       -2.3325103205
 Br         3.6817116590        4.1783655162        3.2230635856
 Br         1.8258378036       -2.7456591266       -4.9309554612
 Br         0.3847061120       -2.4492127839        4.5759778621
 Br        -6.2120027268        2.1647849522       -2.9918829628
 N          3.3975427162       -1.1951132038        2.4186593996
 N          4.2498261932       -2.4121780090        0.0081509010
 N         -1.5282071413        3.8903038330        1.6108092607
 N          2.4589837121        3.1287833473       -2.3022322635
 N         -3.5793815237        2.2326375480        2.5398747796
 N         -0.0884559525        3.5956997164       -1.5229261805
 N         -2.5801665771       -3.4310371593        0.0607016536
 N         -2.8618889765       -2.0705578643       -2.4319095315
 H          4.0787516456       -5.1104137578        3.4120552270
 H          5.2752491795       -4.6886773558        4.6414133742
 H          6.3646879874       -5.5391314956        2.5609908036
 H          6.8104405797       -3.8592031781        2.8804051165
 H         -4.9675896517        5.6034783026        0.1575798005
 H         -4.6774484946        7.1333575506        0.9924553876
 H         -5.0177794089        6.0238253113        3.1785609648
 H         -6.4266568450        5.7713151176        2.1426051321
 H          2.2022763816        7.1673446444       -3.0321957270
 H          3.4524968339        7.5488668377       -1.8447246214
 H          1.1751767624        8.0519573916       -0.9606414514
 H          1.9731479656        6.7945493192       -0.0107444307
 H         -3.1319909489       -7.3137743307       -2.2422173187
 H         -4.4020599004       -6.1096206293       -2.4877865554
 H         -2.8599197634       -6.1456888640       -4.4314863025
 H         -1.4911071313       -5.8254991303       -3.3612252074
 H          3.5350046990       -2.9237986188        4.4536896546
 H          5.1211524037       -2.2962122950        3.9934115806
 H          6.2313712493       -4.1607236535        0.4899440298
 H          4.6511214483       -4.8072947319        0.9320389666
 H         -2.6812449938        6.1703862900        2.1096460274
 H         -2.5348902506        6.0403165804        0.3561366056
 H         -5.5865504799        3.5206894926        1.5158546451
 H         -5.7514434682        3.6562116421        3.2684138631
 H          3.5873962896        5.1678251083       -1.1791465154
 H          3.8622004694        5.3344215476       -2.9156918645
 H         -0.0668955994        6.3328176565       -2.2325017234
 H         -0.3770534484        6.1677768445       -0.4913780423
 H         -1.8618075152       -5.7412342243       -0.8246022263
 H         -3.4914946661       -5.9463906666       -0.1907716066
 H         -3.8936440527       -3.9834660283       -3.7827946146
 H         -2.2766590599       -3.7331447032       -4.4490795410
 H         -0.0053304380        0.3132704001        1.1055028557
 H          3.5667499886        1.2453878817       -1.1851258304
 H         -3.7631382247        0.0210696053        1.4725766893
 H         -0.6744407404        1.1869731698       -1.7893068837
 H          3.8052034017        1.2297409038        2.8014497107
 H          3.3607702888       -2.8596423440       -2.3825366080
 H          0.8736283678        4.3274263708        2.2560334137
 H          1.5089615619        0.1853473983       -4.7706015968
 H         -0.8847207500        0.2146884082        4.6190691811
 H         -3.8936682150        3.9094462243       -2.4592891818
 H         -1.2395486508       -3.3458433446        2.2506859206
 H         -4.5763451980       -0.3155171043       -2.7143604383
 H          1.5966507757       -1.4648621769        1.4230836706
 H          4.8024390800       -0.4163804456        0.0678013251
 H         -1.6229382875        2.0414207229        0.6735346353
 H          1.4896798315        2.4955889606       -4.0232443576
 H         -2.1248652363        2.2081134950        4.0206508002
 H         -1.7445200502        4.7775608162       -1.9901883376
 H         -4.1235622426       -2.0598919030        0.2489781691
 H         -1.0438283289       -1.2346292473       -1.8801137913
 H          2.9291781704       -3.2170923910        2.0617600426
 H          5.6589972957       -1.9680640365        1.5077370688
 H         -3.2728265584        3.6554516008        0.4596019023
 H         -3.3050424705        4.0978975883        3.4817547685
 H          1.5061009751        4.6738929154       -3.3738102399
 H          1.3460854696        4.3747748984       -0.3438168177
 H         -4.2174642782       -3.8157377567       -1.2090114826
 H         -1.3355490728       -3.5043996473       -2.1664748756
 C          0.7608100231       -5.0500001453        0.4461183146
 C          2.0027707432       -4.9909429119       -0.4438524585
 O          0.1287943633       -6.3139210192        0.3304340232
 C          1.0258668907       -7.3579441378        0.6676585401
 C          2.2734989332       -7.2982807833       -0.2153419446
 O          2.9016073225       -6.0335877775       -0.1005298052
 H          0.0153667957       -4.3118974250        0.1453606314
 H          1.7036759402       -5.1017084718       -1.4962382489
 H          1.3165704541       -7.2650707599        1.7241831182
 H          1.9921540671       -7.4750530299       -1.2636939478
 H          2.5538322489       -4.0582066987       -0.3043528782
 H          0.4813023965       -8.2895027464        0.5130741540
 H          3.0111933091       -8.0361769305        0.1003915003
 H          1.0525625013       -4.8844520358        1.4939096722