142
-211.12711989
 C          4.2201692397       -6.0887654790        3.6627089527
 C          3.1071071754       -6.6469847616        2.7818407336
 C         -2.0108485398        4.8021820500        6.6555280685
 C         -3.1999981684        4.2743193839        5.8593235522
 C         -5.9457308715        3.6482890253       -1.4401971710
 C         -6.6202123296        2.6698772914       -2.3965228623
 C          5.7690368315       -1.3772776522       -3.7955022602
 C          5.0399107185       -2.2736836988       -4.7911564124
 C          4.4849823408       -4.6273249962        3.3198133941
 C          1.8365228972       -5.8213062038        2.9435944758
 C         -0.7805303964        3.9349063305        6.4141097764
 C         -2.8661498237        4.2252247871        4.3725445743
 C         -5.4014404022        2.9123740358       -0.2209519010
 C         -5.6423005564        1.5807612226       -2.8228530348
 C          4.8460644713       -0.2693006617       -3.3027705249
 C          3.7877350753       -2.8651148605       -4.1541122275
 C          2.3581953783        0.9055388188        3.8016694631
 C         -1.2294709932       -1.1355579006        1.2851219196
 C          0.7451384298        1.3787839916        0.5103346841
 C         -1.7422392472       -1.6435854971       -2.3446916788
 C          4.0247353739        0.2105888441        2.2075905231
 C         -1.4330955810       -2.1116456769        3.4761577658
 C          3.3139001845        2.5183708399        2.2893235527
 C         -3.0370991703       -0.4642294099        2.7281564599
 C         -0.4829972714        3.3809513675       -0.0217880188
 C         -2.7110895822       -3.2346803180       -0.8177029416
 C          0.9355904822        2.3473240916       -1.6850912397
 C         -0.4593259930       -3.5539850913       -1.6336096093
 C          2.9861271892       -1.4751770118        3.6988617572
 C          0.4253832258       -2.8194980832        1.9971594180
 C          1.4899225647        3.2227691645        3.7888197484
 C         -2.8340588711        0.5386201980        0.4689289177
 C         -0.6791938858        2.3862594456        2.2421195570
 C         -3.9812454192       -1.2018006469       -1.3885670051
 C          2.2162585888        0.2948639617       -1.1453983455
 C          0.5804001510       -1.8755152487       -3.1330461596
 C          3.1389357616       -0.0997123963        3.2429843524
 C         -0.7614145158       -2.0157259928        2.2560544362
 C          2.4250815737        2.2117214770        3.3188267677
 C         -2.3618595059       -0.3574773110        1.5128891742
 C         -0.1409715749        2.3836520623        0.8907177782
 C         -2.8138376669       -2.0547684691       -1.5533738035
 C          1.2907217872        1.3549761422       -0.7696035247
 C         -0.5606107653       -2.3748979329       -2.3767747250
 C          4.1033311556        1.5132918712        1.7590365318
 C         -2.5550722333       -1.3339148339        3.6889770459
 C          0.0557438916        3.3384460807       -1.2945300022
 C         -1.5385361725       -3.9667156361       -0.8789972330
 C          3.2195197169       -3.7870066231        3.4863298993
 C          2.0868644687       -4.3534325099        2.5918406723
 C         -0.4230769182        3.8911921213        4.9306843866
 C         -1.6443189557        3.3487992790        4.1167729599
 C         -4.4103465156        1.8297034058       -0.6355693750
 C         -5.1038129281        0.8230343903       -1.6120552353
 C          3.5899557484       -0.8509587266       -2.6509069115
 C          2.8498276036       -1.7632437378       -3.6625761737
 Br         5.3086784583        1.9390885221        0.3390457993
 Br        -3.4643959132       -1.4541435240        5.3651864267
 Br        -0.4415645133        4.6868900645       -2.5532689202
 Br        -1.4005583902       -5.5749459658        0.1432128084
 N          3.4765500711       -2.4458215025        3.0572555356
 N          0.9039891918       -3.6009423226        2.8636239008
 N          0.6396614452        2.9743693193        4.6930055830
 N         -3.9734198637        1.0871917000        0.5031866931
 N         -1.2841146473        3.3817743019        2.7353061968
 N         -4.0922689951       -0.0998616893       -2.0014271082
 N          2.7075621926        0.2171149074       -2.3042601414
 N          1.7394965030       -2.3512423155       -2.9765891903
 H          3.9286296975       -6.1688186700        4.7123084937
 H          5.1351747058       -6.6666109307        3.5220003577
 H          2.8999167986       -7.6838689748        3.0509005973
 H          3.4232943063       -6.6268182718        1.7366115216
 H         -1.7961321434        5.8294849522        6.3522175107
 H         -2.2470973854        4.8075189024        7.7207916005
 H         -3.4540417787        3.2704872406        6.2071754874
 H         -4.0689321829        4.9153765072        6.0160490124
 H         -5.1252027618        4.1532145933       -1.9549791651
 H         -6.6597548486        4.4077693925       -1.1178191004
 H         -6.9805472719        3.1994410230       -3.2799038810
 H         -7.4806470902        2.2121983493       -1.9029556316
 H          6.6479914610       -0.9324121918       -4.2645555415
 H          6.1066051154       -1.9741827743       -2.9454204474
 H          5.6965784950       -3.0811867753       -5.1193071746
 H          4.7587770843       -1.6890267425       -5.6698837515
 H          5.2632947943       -4.2179059631        3.9670938555
 H          4.8245474029       -4.5373380993        2.2865735234
 H          1.0454448861       -6.2047568830        2.2964012981
 H          1.4814136925       -5.8709971914        3.9740730257
 H         -0.9637390219        2.9146939651        6.7552078503
 H          0.0762471986        4.3266518023        6.9662482580
 H         -2.6582642236        5.2280069906        3.9958468000
 H         -3.7069737881        3.8194150130        3.8072017312
 H         -6.2147228559        2.4431076621        0.3349797349
 H         -4.8928205653        3.6088942865        0.4479355612
 H         -4.7986989798        2.0179928252       -3.3594234542
 H         -6.1326327691        0.8676539156       -3.4887397946
 H          4.5376556252        0.3647873288       -4.1353710335
 H          5.3586455795        0.3596812115       -2.5724442201
 H          4.0573130903       -3.4930364531       -3.3031887865
 H          3.2495936813       -3.4854496003       -4.8737910666
 H          1.6622703976        0.6893790387        4.5974099542
 H         -0.7153052584       -1.0588399142        0.3375370608
 H          1.0172496587        0.6140485535        1.2239678807
 H         -1.8420002538       -0.7270238705       -2.9051775402
 H          4.6259463626       -0.5758844127        1.7803087537
 H         -1.0621121740       -2.7946932374        4.2231792735
 H          3.3762057630        3.5249983063        1.9040918798
 H         -3.9159095310        0.1381233014        2.8931080144
 H         -1.1647805038        4.1582867352        0.2836127965
 H         -3.5320558995       -3.5655989895       -0.1995522202
 H          1.3600148160        2.3188790086       -2.6756814088
 H          0.4613435420       -4.1143395720       -1.6642310831
 H          2.3912875462       -1.6120494389        4.6125256546
 H          0.8718486691       -2.6982791806        0.9973265012
 H          1.5307059865        4.1930508133        3.2724072473
 H         -2.1314343740        0.6988580939       -0.3621023242
 H         -0.5143987686        1.4598077291        2.8118084051
 H         -4.7291595766       -1.5453100361       -0.6588875441
 H          2.4568524536       -0.4286231479       -0.3501169485
 H          0.3724408454       -1.0400146502       -3.8155688914
 H          2.8628806609       -3.8202830854        4.5297873815
 H          2.4029942876       -4.2560261427        1.5381638346
 H         -0.1954539346        4.9021237760        4.5500224529
 H         -1.8214033076        2.3179371599        4.4649652435
 H         -3.5600869343        2.2658510750       -1.1852361623
 H         -5.9229601581        0.3346778257       -1.0560326335
 H          3.8581629555       -1.4636994491       -1.7720692031
 H          2.5206601854       -1.1274039719       -4.5018778490
 C         -0.7616534106        0.8955488617      -11.9988057152
 C         -1.3250781329        0.6029357600      -10.6067974816
 O         -0.1952730837        2.1943254220      -12.0442393369
 C          0.8140821624        2.3341039460      -11.0583906848
 C          0.2511200035        2.0411051208       -9.6663755303
 O         -0.3154631945        0.7415701940       -9.6208766651
 H         -1.5513925400        0.8806128845      -12.7500266222
 H         -2.1483184485        1.2988354464      -10.3896834268
 H          1.6383422920        1.6393840012      -11.2759230522
 H         -0.5178155028        2.7860701981       -9.4159956681
 H         -1.6797555021       -0.4256273778      -10.5379471090
 H          1.1671283449        3.3631013604      -11.1271879105
 H          1.0410997826        2.0561574204       -8.9154269869
 H          0.0074186532        0.1502040173      -12.2486060307