142
-211.13012344
 C          2.1454942114       -7.0456178270        3.0151752081
 C          1.3991751083       -7.3721332826        1.7257368529
 C         -4.5858074921        3.6811426689        5.3149393245
 C         -5.3686535126        3.4376091482        4.0288915833
 C         -5.3461003862        4.2966139000       -3.2687826181
 C         -5.6454190469        3.5755983573       -4.5790103634
 C          6.5175113868       -0.9151252131       -2.8371537847
 C          6.1236605908       -1.6003057970       -4.1417564260
 C          2.5455328209       -5.5749526733        3.0377694542
 C          0.1693871123       -6.4834757541        1.5849184564
 C         -3.3714858343        2.7620059174        5.3800053558
 C         -4.4743167025        3.6516236077        2.8130905976
 C         -5.2728013398        3.2999977428       -2.1175862840
 C         -4.5832807723        2.5186292994       -4.8589106593
 C          5.4949198907        0.1521926645       -2.4673719454
 C          4.7319660138       -2.2099453851       -4.0203275344
 C          0.4911429858       -0.0200171457        3.6448217438
 C         -1.9874711580       -1.3044626953       -0.1059057830
 C          0.3307696281        1.3373672819        0.0537139196
 C         -1.0825485959       -0.9785849588       -3.7854925039
 C          2.6052171332       -0.5950442979        2.6448099931
 C         -3.0002159873       -2.6487354737        1.6152120335
 C          1.9630706086        1.7211169811        2.8695492295
 C         -4.1905336654       -0.7549555114        0.6976586117
 C         -0.5893242960        3.5149548607       -0.4082346177
 C         -2.4885213981       -2.7761122156       -3.0151871192
 C          1.3391574875        2.7258901378       -1.6344090880
 C         -0.0904993514       -3.0643459343       -3.1038143607
 C          1.0679931510       -2.3990307585        3.3770476024
 C         -0.7419111712       -3.2387575338        0.7837773456
 C         -0.2624437230        2.3356899324        3.7288633375
 C         -3.1554504398        0.6299357118       -1.0794711100
 C         -1.6374031717        2.0886028621        1.3271734459
 C         -3.5151370718       -0.5985251506       -3.5498504084
 C          2.3068153687        0.4951505937       -1.1622730566
 C          1.3702834026       -1.1994874701       -3.8390186147
 C          1.4011017377       -0.9878027693        3.2354811983
 C         -1.9251744615       -2.3897985134        0.7629044815
 C          0.7561010204        1.3346277980        3.4499900335
 C         -3.1132782372       -0.4852984300       -0.1456494727
 C         -0.6242279573        2.3190461051        0.3081876958
 C         -2.3519804285       -1.4711828833       -3.4867385706
 C          1.3162891248        1.5330392524       -0.9094241497
 C          0.0494337968       -1.7599123258       -3.5854889387
 C          2.8701859107        0.7500845271        2.4811049420
 C         -4.1088231463       -1.8256060415        1.5688203595
 C          0.3869219180        3.6915902958       -1.3711366238
 C         -1.3549725684       -3.5502744000       -2.8392218203
 C          1.3221794521       -4.6692909745        2.9037757327
 C          0.5557737688       -5.0036146055        1.5968800364
 C         -2.4550685237        2.9739540126        4.1776871675
 C         -3.2589604764        2.7306298753        2.8575149185
 C         -4.2073756160        2.2395964524       -2.3771333024
 C         -4.5068089006        1.5009148172       -3.7236865097
 C          4.0967101791       -0.4517798839       -2.3285593387
 C          3.6951023970       -1.1482262904       -3.6551636394
 Br         4.5086264833        1.2920507214        1.6544438196
 Br        -5.5719747841       -2.1688552929        2.7486807630
 Br         0.4117333124        5.3183851105       -2.3733783405
 Br        -1.5497454949       -5.3339027562       -2.1810055846
 N          1.7457473258       -3.3047107336        2.8154984319
 N         -0.6322808115       -4.2118642474        1.5786873273
 N         -1.4038177954        2.0144023516        4.1722008681
 N         -4.2228116424        1.2555495972       -1.3432455676
 N         -2.3831042095        3.0118271336        1.7658047637
 N         -3.4173118632        0.6070628066       -3.9230768832
 N          3.1592559860        0.5977158737       -2.0862743225
 N          2.4250370805       -1.7762312691       -3.4525200910
 H          1.5032968892       -7.2610355491        3.8720655431
 H          3.0390176823       -7.6665684740        3.0989396992
 H          1.0903659357       -8.4185985125        1.7252364693
 H          2.0604223493       -7.2154871618        0.8707207080
 H         -4.2561296231        4.7220557301        5.3497868156
 H         -5.2241211788        3.5001653508        6.1812003284
 H         -5.7498780815        2.4139746462        4.0233925056
 H         -6.2219885808        4.1155712092        3.9761948810
 H         -4.3934161835        4.8243084927       -3.3531553572
 H         -6.1229681521        5.0342986594       -3.0618069042
 H         -5.6703518341        4.2912041458       -5.4023633729
 H         -6.6259125682        3.0979905500       -4.5168126481
 H          7.5005290651       -0.4525309177       -2.9372763818
 H          6.5745376391       -1.6560115598       -2.0368208558
 H          6.8430042279       -2.3834772723       -4.3873880192
 H          6.1304781375       -0.8692909645       -4.9534062407
 H          3.0576232645       -5.3325966904        3.9712547008
 H          3.2266469869       -5.3563034881        2.2136179335
 H         -0.3532797266       -6.6978558431        0.6507123170
 H         -0.5237877556       -6.6631908090        2.4081217178
 H         -3.6878647626        1.7176853560        5.3918602556
 H         -2.7983896934        2.9511528981        6.2900186834
 H         -4.1239958187        4.6844113186        2.7758263715
 H         -5.0276663436        3.4486631368        1.8945736565
 H         -6.2335280999        2.7996261344       -1.9859361549
 H         -5.0278515675        3.8134661374       -1.1861389231
 H         -3.6035276056        2.9865261165       -4.9683663542
 H         -4.8089045959        1.9874805232       -5.7859053447
 H          5.4585965498        0.9220735736       -3.2399979921
 H          5.7650229907        0.6313840448       -1.5247505768
 H          4.7232537026       -2.9788643474       -3.2459607370
 H          4.4357742342       -2.6768940523       -4.9620132822
 H         -0.4497176848       -0.2979201970        4.0939325633
 H         -1.1578639322       -1.0968303391       -0.7669470258
 H          0.3064991237        0.4161234376        0.6184995079
 H         -0.9998167038        0.0339642278       -4.1489616501
 H          3.3024432399       -1.3532476597        2.3258462490
 H         -2.9406288198       -3.4888049193        2.2881999548
 H          2.1815357752        2.7664033317        2.7110599179
 H         -5.0595369317       -0.1181740793        0.6561758978
 H         -1.3292015817        4.2710022741       -0.1998926949
 H         -3.4649340219       -3.1723829418       -2.7803259317
 H          2.1029453446        2.8659618482       -2.3822459443
 H          0.7932837048       -3.6625059695       -2.9494380965
 H          0.1753590399       -2.6191322254        3.9791799204
 H          0.0447037839       -2.9764940125        0.0587173619
 H          0.0001758682        3.3741788375        3.4792411862
 H         -2.1937408892        0.8872959769       -1.5471018716
 H         -1.7084650941        1.0538858461        1.6924874142
 H         -4.4651212500       -1.0333514665       -3.2065014505
 H          2.2593971748       -0.3804188955       -0.4959472493
 H          1.3847377415       -0.2348070150       -4.3651960062
 H          0.6243321464       -4.8271274827        3.7434807764
 H          1.2194310453       -4.7687733975        0.7461647770
 H         -2.0765083038        4.0104451271        4.1470446318
 H         -3.5677747951        1.6722877464        2.8669471456
 H         -3.2115393048        2.7008333549       -2.4844620187
 H         -5.4673434747        0.9707723674       -3.6026367470
 H          4.0789688275       -1.2110638937       -1.5271327088
 H          3.6437573635       -0.3674370778       -4.4328541349
 C          8.3490552433        2.7046491765        1.8076947722
 C          8.1114813284        1.7942708253        0.6024324721
 O          8.2471424793        4.0671566525        1.4297379773
 C          6.9791081349        4.3301661959        0.8541198000
 C          6.7362140666        3.4219961642       -0.3518678319
 O          6.8450743383        2.0576367829        0.0202905717
 H          9.3553323213        2.5725041761        2.2051128872
 H          8.8980364202        1.9604405050       -0.1472537709
 H          6.1934578043        4.1575100692        1.6029497671
 H          7.4724889440        3.6447718657       -1.1369254032
 H          8.0956752622        0.7469380998        0.9027364022
 H          6.9896553367        5.3788785150        0.5570038418
 H          5.7257895986        3.5506213859       -0.7392270261
 H          7.6036150077        2.4815388403        2.5838649054