142
-211.12661162
 C          1.4988316156       -6.7729932036        1.7358515966
 C          1.0874577634       -6.6914713427        0.2692901048
 C         -3.7853985682        4.5371488747        4.9175818307
 C         -4.2993876852        4.6219752088        3.4838180146
 C         -1.9953906337        6.6169872485       -3.9850752902
 C         -2.0964711964        6.1157243156       -5.4222531631
 C          7.8280828699       -1.3858572982       -1.2020393728
 C          7.7667887138       -1.7458972210       -2.6829479436
 C          2.1163964672       -5.4546639977        2.1880927675
 C          0.1114762283       -5.5411286376        0.0532371767
 C         -2.7859880327        3.3946450654        5.0599646594
 C         -3.1388133905        4.8026413300        2.5117457172
 C         -2.4018067099        5.5191500480       -3.0083519739
 C         -1.2269492030        4.8789113832       -5.6186154325
 C          6.9530007354       -0.1721469292       -0.9133990627
 C          6.3264234848       -2.0118820432       -3.1051574628
 C          0.8855847400        0.1931149420        3.5944741379
 C         -0.6111951821        0.1260409214       -1.0693962627
 C          1.6524582911        1.8535245844        0.4113724474
 C          1.0911201026        0.5468440807       -4.2853160483
 C          3.0737499822       -0.6177853605        2.9979946485
 C         -2.2181076002       -1.1323924631        0.2068718024
 C          2.7555458389        1.7106719094        3.5595015076
 C         -2.7837587893        1.0658103038       -0.6267469612
 C          1.2820128729        4.2127950218        0.1010442444
 C         -0.8142101006       -0.9263727653       -4.2524704367
 C          3.2651167973        3.1650699963       -0.8026332522
 C          1.3912600063       -1.7865577751       -3.7690225711
 C          1.1382156469       -2.1658671527        2.9330727739
 C          0.0096713273       -2.1169800368       -0.2579256783
 C          0.5009417048        2.6032272425        3.9991210293
 C         -1.1326744004        2.3626451396       -1.9466316385
 C         -0.3778425952        2.8650941778        1.3578763193
 C         -1.1752912569        1.4848659699       -4.6107298647
 C          3.6638662390        0.7398787953       -0.4780279998
 C          3.3446261444       -0.2622403421       -3.7021761224
 C          1.7110560365       -0.8530083632        3.1989933095
 C         -0.9539813599       -1.0313574860       -0.3767903122
 C          1.3946267084        1.4807367834        3.7567579444
 C         -1.5171756888        1.1754696241       -1.1991184160
 C          0.8624011413        2.9833410851        0.6074450067
 C         -0.2825168712        0.3512627305       -4.4222178489
 C          2.8535903892        1.9349266348       -0.2865661987
 C          1.9285500506       -0.5081534273       -3.9417594600
 C          3.5710851879        0.6545992066        3.1932828562
 C         -3.1057248634       -0.0817989715        0.0740972802
 C          2.4717494436        4.2780957929       -0.6004497798
 C          0.0345924863       -1.9732292305       -3.9392885359
 C          1.1419088855       -4.2956725962        1.9833612346
 C          0.7278905151       -4.2111046037        0.4920123949
 C         -1.6096813650        3.5738678150        4.1037325697
 C         -2.1432999890        3.6537189848        2.6352070723
 C         -1.5274247009        4.2820846503       -3.1859037853
 C         -1.6343731246        3.7645931959       -4.6580858799
 C          5.5015589522       -0.4336520710       -1.3215533869
 C          5.4402831735       -0.7982782268       -2.8267391574
 Br         5.4325566668        0.9806333808        2.9122988731
 Br        -4.8264039846       -0.2099048923        0.8945587549
 Br         3.0286835077        5.9583042684       -1.3197830139
 Br        -0.7029900764       -3.7192116275       -3.6991023548
 N          1.7840024938       -3.0613686311        2.3204108646
 N         -0.2513369759       -3.1783528989        0.3713131002
 N         -0.7462711362        2.4426919499        4.1437217026
 N         -1.9711329877        3.2283972941       -2.3299803588
 N         -1.0188520367        3.8698034557        1.7818210817
 N         -0.7359895396        2.6637278604       -4.7487495938
 N          4.7420294020        0.7609151119       -1.1319351253
 N          4.0799229479       -1.1186342237       -3.1363780131
 H          0.6213805262       -6.9920958500        2.3483352132
 H          2.2195423945       -7.5799117965        1.8786069838
 H          0.6175490380       -7.6259223871       -0.0412652072
 H          1.9733304609       -6.5376280832       -0.3507456149
 H         -3.3012774402        5.4785533753        5.1876074969
 H         -4.6183672484        4.3774303064        5.6040719039
 H         -4.8403571146        3.7058528010        3.2362583300
 H         -4.9914173958        5.4596787049        3.3842646165
 H         -0.9677813381        6.9242166520       -3.7781004668
 H         -2.6413763448        7.4852708819       -3.8460767143
 H         -1.7766783716        6.8968619072       -6.1137773272
 H         -3.1359866544        5.8684659427       -5.6497568645
 H          8.8565112876       -1.1661041583       -0.9113815120
 H          7.4829855936       -2.2330342737       -0.6052984707
 H          8.3722754090       -2.6324870828       -2.8785528503
 H          8.1729305470       -0.9226545917       -3.2748485354
 H          2.3859857269       -5.5017941405        3.2451939580
 H          3.0236562337       -5.2471375881        1.6181708276
 H         -0.1659188072       -5.4673523433       -0.9999461712
 H         -0.8000827464       -5.7041237271        0.6302191533
 H         -3.2677623065        2.4406188851        4.8399222956
 H         -2.4004586355        3.3508008556        6.0806774896
 H         -2.6150980059        5.7384099736        2.7138335379
 H         -3.5039983580        4.8360811729        1.4836534282
 H         -3.4427193544        5.2335387402       -3.1684879797
 H         -2.3022823467        5.8684004575       -1.9789353444
 H         -0.1779585661        5.1214393325       -5.4411320110
 H         -1.3191012597        4.5069066979       -6.6411404719
 H          7.3141813548        0.6955187974       -1.4676069953
 H          6.9779153134        0.0740053917        0.1498085844
 H          5.9236127340       -2.8652562024       -2.5569476540
 H          6.2772497337       -2.2427777165       -4.1712914881
 H         -0.1706262912        0.0374537422        3.7505735844
 H          0.3666581732        0.2102748889       -1.5218764626
 H          1.3303199283        0.9042142029        0.8152827571
 H          1.4818128391        1.5436627373       -4.4193356008
 H          3.7064707597       -1.4352434818        2.6914978895
 H         -2.4738326082       -2.0303931234        0.7457774419
 H          3.1643678452        2.7026333890        3.6798333294
 H         -3.4803040033        1.8812031221       -0.7369240107
 H          0.6663732001        5.0829466706        0.2627894491
 H         -1.8760068083       -1.0932997600       -4.3539821541
 H          4.1960579825        3.2187443071       -1.3436685553
 H          2.0486291688       -2.5989123324       -3.5035657744
 H          0.1000941072       -2.3092152735        3.2631879727
 H          0.9775132797       -1.9470652386       -0.7561403157
 H          0.9668890564        3.5995542179        3.9902999193
 H         -0.0580288154        2.4490848367       -2.1653668743
 H         -0.7157441886        1.8343938223        1.5409113940
 H         -2.2514681310        1.2612362854       -4.5685923916
 H          3.2715330350       -0.1780382477       -0.0119463277
 H          3.7171534970        0.7246102874       -4.0098140248
 H          0.2220306665       -4.4505119375        2.5724138844
 H          1.6322281765       -3.9901413351       -0.1023411270
 H         -1.0726314398        4.5157499399        4.3115981827
 H         -2.6311192542        2.6878427637        2.4249657758
 H         -0.4658308142        4.5242783675       -3.0142975921
 H         -2.6826738945        3.4625065587       -4.8272169048
 H          5.0850930278       -1.2802144188       -0.7473007854
 H          5.7917053548        0.0804390654       -3.3937318109
 C         -8.9252102924       -9.3056943344        5.4573052458
 C         -9.9594907128       -8.2149746295        5.1715583269
 O         -9.3710865351      -10.5574217694        4.9625762013
 C         -9.6406180706      -10.4778838408        3.5727813507
 C        -10.6748942873       -9.3871800077        3.2870602248
 O        -10.2289823755       -8.1356902789        3.7819136797
 H         -8.7814946650       -9.4355902293        6.5300535364
 H        -10.8894473079       -8.4388159520        5.7140256407
 H         -8.7106678690      -10.2537874094        3.0304964648
 H        -11.6297712428       -9.6517795309        3.7639125799
 H         -9.5841269744       -7.2347297313        5.4656160989
 H        -10.0158700608      -11.4580645288        3.2783803141
 H        -10.8183805553       -9.2572188416        2.2143109122
 H         -7.9705688144       -9.0410724401        4.9800946001