96
 energy: -142.726921706371 gnorm: 0.000274020297 xtb: 6.4.1 (23d549d)
C        -5.97816084959420   -2.36222477348684    2.32429066741783
C        -6.56020717870849   -1.58353059001095    1.15095012200698
C         5.16199636726897   -5.80659106984487   -2.33736362259983
C         6.19893333987754   -4.68084913077069   -2.24134573619585
C         2.12302744448913    7.75404552488145   -1.96002343326914
C         3.16910764231605    6.72029936671712   -2.36835835856487
C        -4.79305937157845   -1.59475824458140    2.89978025284498
C        -5.50889638016915   -1.44793651410381    0.05766915240090
C         3.86835290736386   -5.29191520560590   -2.95662447669412
C         5.53707301638967   -3.32204144080945   -1.98130220654863
C         0.75615184425219    7.10083490515151   -1.78202365787377
C         3.22851988499435    5.57982562577045   -1.35709761659125
C        -0.78408163751176   -3.98950195183290    0.54478777466558
C        -2.57674171394032    3.67832315030132    0.21663358725807
C         2.57135302117307    0.30969506398847   -0.16442306341307
C        -1.51855879369826   -5.70237305829726    2.06488194118526
C        -4.75227303531316    3.52703193261393    1.23601904475805
C         0.41826986831730   -6.07033241697695    0.65936856162054
C        -3.53359135488965    5.61915400011038    1.26456846676362
C         2.00921207349142   -0.66722681885759    1.96474288972708
C         1.47203997760082    1.64448934501892    1.51283183370414
C        -2.71784403858468   -3.52596639501390    2.00612246441810
C        -3.66340382959782    1.49383100125710    0.28900129077257
C         1.19556691420581   -4.27485574912127   -0.87696006034486
C        -1.23344728143817    5.73263323061559    0.32298927621681
C         3.19787704952380   -2.04773630572491    0.31026312072479
C         2.00535663248807    2.66404000906577   -0.67504061935416
C        -1.67074148418001   -4.42661183283466    1.52697948031671
C        -3.68927207272783    2.92056965825671    0.56428590290318
C         0.26224115889050   -4.79379238051081    0.11276757332877
C        -2.47728878166960    5.01667159605977    0.58413563769235
C         2.58620521811144   -0.78421240345236    0.69999075750523
C         2.02781216008135    1.52524044389091    0.23742375544923
C        -0.47960230755417   -6.50061345444716    1.61530875987475
C        -4.66104471814143    4.86813066265251    1.55222693830029
C         1.45729878074385    0.54267320436526    2.34382393414473
C        -3.69696626971807   -1.32913513689593    1.86394427499242
C        -4.25041837247082   -0.72456022114796    0.54287171932811
C         3.19894025647382   -4.23856038029007   -2.06284081165847
C         4.24754579593404   -3.49963481162250   -1.18375895315308
C         0.83740030401161    5.97898848022101   -0.73967590782551
C         1.84948017232578    4.92411577272608   -1.21826538736507
Br       -0.27629903524088   -8.25563324021341    2.36018390696206
Br       -6.12760117816685    5.71440006510502    2.45067120427230
Br        0.64431912133817    0.68943380837045    4.07302697375519
N        -2.81404745482841   -2.38393632329961    1.48170056383778
N        -4.49567482624496    0.67093829656132    0.76162197457778
N         2.27856236039495   -4.85887738697446   -1.16015816417895
N        -0.43559885051781    5.33861716689866   -0.57138963563826
N         3.68970126707241   -2.22995235955253   -0.83937557080150
N         1.89991084449010    3.85248381853282   -0.26511257534008
H        -6.73345547840597   -2.49933262830612    3.10090544959829
H        -5.66207782380871   -3.35080167969535    1.98184983611790
H        -6.86350395343130   -0.59051083752581    1.48525799136878
H        -7.43740938548495   -2.09653389108399    0.75190272724877
H         5.55951624033914   -6.62538771516899   -2.93873916028857
H         4.93938458043935   -6.20289962783932   -1.34581612300089
H         6.90181809168614   -4.90979214166159   -1.43846161520072
H         6.76905494383353   -4.62179280161002   -3.16987138260816
H         2.05673451455369    8.53520607827148   -2.71963762295293
H         2.42412363388184    8.22267735743205   -1.02031172635163
H         4.14999103197851    7.19374290560057   -2.44067558189281
H         2.91635440582205    6.31760109925795   -3.35189661060435
H        -4.36061289671434   -2.12210721599595    3.75354314504578
H        -5.14232127467126   -0.62309257933116    3.25323269273011
H        -5.91534685163310   -0.89806387957179   -0.79398121636077
H        -5.21091996715583   -2.44064444348265   -0.28863281148886
H         3.16510442030656   -6.11414480265569   -3.09788991227003
H         4.07956163858653   -4.85357958395679   -3.93260343097384
H         5.28864369645620   -2.82187923336612   -2.91792360475539
H         6.21217490335097   -2.66818621207799   -1.42684498078976
H         0.02109821299620    7.83912667532415   -1.45350363344773
H         0.40991496602507    6.67891078004961   -2.72769490596160
H         3.54110479002847    5.95239139640541   -0.37978489767943
H         3.95062862077656    4.82495898454857   -1.67646478451753
H        -0.92182593602566   -2.99806554979553    0.14301061839054
H        -1.74725828061149    3.23412842933506   -0.31053737381221
H         3.01045633464763    0.19367793080782   -1.14293624760061
H        -2.19687068965816   -6.06330027959743    2.82328918323577
H        -5.61448361945791    2.93744713718875    1.50185804076622
H         1.23360582891372   -6.69097451918325    0.32454863487545
H        -3.47781764833967    6.65672548177726    1.55721937568103
H         1.99074442065103   -1.51209943334129    2.63670980306951
H         1.05535113015668    2.59096480681508    1.81726224064280
H        -3.33944185099004   -3.90035735058202    2.82659776336672
H        -2.80697088711323    1.16067430370731   -0.31859548531498
H         0.90474784443640   -3.32246034433270   -1.34500526734589
H        -1.02291104806842    6.59096103817400    0.97754634586509
H         3.21385517270039   -2.82985372030743    1.08431766262269
H         2.07841032944100    2.41199939413207   -1.74355936073206
H        -3.01747863002881   -0.56855926286011    2.28201474130594
H        -3.45286502664808   -0.86326307900080   -0.21233602111562
H         2.69856576991733   -3.47270514514305   -2.68153210535820
H         4.43554494281566   -4.11377683123866   -0.28659952868185
H         1.18969486339931    6.40625715507977    0.21363535789577
H         1.52995231295041    4.55360930195956   -2.20758816505268
