96
 energy: -142.731106970103 gnorm: 0.000321156439 xtb: 6.4.1 (23d549d)
C        -4.19101867745684   -5.08851766934803    0.96569177180389
C        -3.07212670142925   -5.90037229572001    1.63033627438328
C        -3.14810829353858    6.25268529041115    3.17943416249566
C        -2.03673958625007    7.00767618913645    2.45665082418186
C         6.58561423723381    0.48596223949466    2.78352492439262
C         6.77619541801120    1.66886529947891    1.83943899122336
C        -3.92417769131144   -4.94105658372587   -0.52645316840601
C        -1.73552776377401   -5.70881534304743    0.90696757968248
C        -3.87448221463746    5.31927183293411    2.21716491792323
C        -1.05854205720546    6.03093541070230    1.81329107112107
C         5.95601694762039   -0.68776315137291    2.04194763051770
C         5.44084579714270    2.08393909964165    1.23231473666976
C        -3.34551326285632    0.13253916660919   -0.65592661673405
C         2.38791929915746   -3.29441289797182   -0.62455136660092
C         0.96040961690927    2.26203017230603   -0.93978634403189
C        -4.33889968842830   -0.07717144042344   -2.84000094709205
C         2.31200828779972   -4.93219505362018   -2.38993066194347
C        -4.43705246373763    2.03040315645141   -1.65917830704631
C         4.33740606649850   -3.67929443489175   -1.98638198355910
C        -0.84521796822714    1.85482885826880   -2.48259405806495
C         1.15454079540285    0.50789773865501   -2.58207389919850
C        -3.25702193050056   -2.04953508152940   -1.81440758506835
C         0.29680095975718   -4.56969986793993   -1.01193295628235
C        -3.25696383656964    2.30169317073551    0.50289886581371
C         4.44601376529547   -1.96798532445702   -0.21594220975057
C        -1.09897495155177    3.66130968192007   -0.84744408735060
C         3.04818515847699    0.92113864096699   -1.07359313742097
C        -3.65591651293983   -0.64681514567921   -1.76709651150142
C         1.68227302383768   -4.25446440865426   -1.34459326601419
C        -3.71441027066970    1.47226254045392   -0.60135282707826
C         3.71113607733305   -2.99976330551362   -0.93945605960192
C        -0.30325079132797    2.58538939732098   -1.42356316580570
C         1.70316568373637    1.24343430246490   -1.53083508700600
C        -4.73310085841669    1.24710157716914   -2.75673022331382
C         3.62793487372463   -4.63438346522341   -2.68938168013336
C        -0.11910084379330    0.81158646651890   -3.02023943115938
C        -2.67415587824905   -4.07376673089735   -0.77789316098827
C        -1.62791955285649   -4.28647710589798    0.34343626140005
C        -2.90214466560364    4.32583761147157    1.58495365738455
C        -1.77793679502854    5.10644142832761    0.83521395667968
C         4.60298138370139   -0.28772236859508    1.44300960454229
C         4.78670525703670    0.92114309382734    0.48693871428747
Br       -5.68561389197539    2.02492412071489   -4.22908810979948
Br        4.49457476562150   -5.57026979862194   -4.12354937702591
Br       -0.89761076463090   -0.23743649942772   -4.41427079055125
N        -3.04426750235328   -2.69094136693937   -0.75034496208973
N        -0.28382676881313   -3.97725957907485   -0.06086228406539
N        -3.56321073718546    3.52472649530342    0.60750951497782
N         3.93018871080576   -1.36436586012548    0.76557837731065
N        -0.86449977519268    4.14696484718463    0.29585650742158
N         3.48994536475628    1.32072552230387    0.03713314963845
H        -5.15234957029744   -5.57980102507299    1.12321642427602
H        -4.24997129038623   -4.09189921006326    1.40436542338262
H        -2.97383844379027   -5.59309594343832    2.67221110521557
H        -3.32569257655815   -6.96204668138343    1.62196899130326
H        -2.71827182440292    5.66742785711243    3.99549150230751
H        -3.86106872452231    6.95817970259156    3.60979393453424
H        -1.50288866587263    7.64946733175499    3.15963563970514
H        -2.47342931844460    7.64475799985402    1.68407356349717
H         7.54733918072604    0.17980927432948    3.19969779457759
H         5.93714759254946    0.78124700082736    3.61065202547073
H         7.20867185871148    2.51275697439957    2.37941618306885
H         7.46980787186069    1.39117145626644    1.04153251206441
H        -4.77656754361784   -4.47113435053100   -1.02173058389860
H        -3.77676076139701   -5.92516010199016   -0.97387113049368
H        -0.90491086094242   -5.87908686309889    1.59426828118391
H        -1.63586484630421   -6.42172697207289    0.08603204059021
H        -4.65147724213237    4.76026087723920    2.74288017955201
H        -4.35285776341492    5.89180324418027    1.42080086904476
H        -0.57528156709994    5.41853451132675    2.57598827897125
H        -0.27926869209877    6.57185177996819    1.27316553991561
H         5.79872686031978   -1.52881513538096    2.72079088936763
H         6.62580959031598   -1.01839546581871    1.24471618589365
H         4.75572406004133    2.41375656305649    2.01420679911264
H         5.58012006555502    2.91256213690111    0.53491879770697
H        -2.79427972610443   -0.32230870860639    0.15185485489080
H         1.90208608251197   -2.76918841855521    0.18061973171884
H         1.37716903986782    2.81673472981946   -0.11597543934358
H        -4.56247952523289   -0.66221714934071   -3.71900539747188
H         1.77929888743806   -5.67966520880753   -2.95856011945827
H        -4.73144167555573    3.06623085606578   -1.60469640152506
H         5.36392427089145   -3.46499371532527   -2.24419344262063
H        -1.82605040252701    2.09375540969217   -2.86398016986747
H         1.71383222825919   -0.29472204506080   -3.03905404870436
H        -3.16878131243626   -2.49730744003188   -2.81522383974306
H        -0.16917444761150   -5.34608313246696   -1.63518704531191
H        -2.58561180419874    1.80441366359189    1.21743865550569
H         5.45275440790441   -1.76009163514475   -0.60698169198319
H        -1.93292450407557    4.01389795100297   -1.47204577520289
H         3.64257287025470    0.29326874818332   -1.75666641240797
H        -2.24455488373220   -4.34876502652446   -1.75808559186816
H        -1.85773680339209   -3.57156834248520    1.14178506900301
H        -2.41533371824963    3.70966353446241    2.36114986647465
H        -2.27141631605370    5.68911320147868    0.03939956654787
H         3.92439564764885    0.02259541005747    2.24616142995767
H         5.42737550223627    0.59358878495779   -0.35281327410654
