  16
        -31.85783544
 C         -2.1798580187       -0.1385048821        0.0003054415
 C         -0.2121044136        1.2631330719        0.0002650569
 C          0.0160570880       -1.1390259187        0.0010505235
 C         -2.4549952789        2.3281477940       -0.0011980254
 C         -1.9742778494       -2.6167066161       -0.0003837525
 C         -1.6010587831        1.1297934800       -0.0001470749
 C         -1.3749930242       -1.2727774897        0.0003190587
 C          0.5765490420        0.1248259459        0.0014623872
 Br         2.4803099750        0.3081242405       -0.0001801169
 O         -3.6631262483        2.3116537146        0.0003857944
 O         -1.3498960274       -3.6509155272       -0.0007776695
 H         -3.2567378959       -0.2191877039        0.0005998036
 H          0.2417673269        2.2424615723       -0.0004280310
 H          0.6275636473       -2.0291520591        0.0012056436
 H         -1.9003220900        3.2827372624       -0.0028386809
 H         -3.0779950669       -2.6181292674        0.0020169122
