64
 energy: -95.154641589008 gnorm: 0.000158215768 xtb: 6.4.1 (23d549d)
C        -6.01653583738752   -2.48983341379013   -2.16669424478665
C        -6.58335243856998   -1.55436614740165   -1.10471167603083
C         6.61259940294431    1.58350550680280    0.73538360345207
C         6.14184158887305    2.56044918685731    1.80730877239746
C        -4.67968963515889   -3.05712244479232   -1.70629412070259
C        -5.60486284896209   -0.41834723790752   -0.82599592756306
C         5.63535100248886    0.41830505528893    0.62769164500198
C         4.74545343962235    3.07353001697416    1.47752127080451
C         0.97697564912152   -1.68788962249628   -0.32380661979217
C        -0.97841002484657    1.60327779201296    0.49857925855514
C        -0.13556500351882   -3.76336149926818    0.17735052281403
C        -2.29075524225546    3.47056682387912   -0.27240337416733
C         2.17111423044677   -3.43600487682684    0.82395645051272
C         0.03430861397725    3.78061813598872    0.30568457972071
C        -1.37689156642456   -1.96425489097477   -0.99381922774577
C        -3.33821743910951    1.24182075511453   -0.19578586938689
C         3.30876819398357   -1.28147889446600    0.40381312188502
C         1.40459374541794    1.88086086465702    1.09818183693466
C        -0.16174510030046   -2.48205405788284   -0.37910018911965
C        -2.18770590957751    2.11252721308200    0.02695065432263
C         2.14104162541981   -2.14978174045312    0.28778906966223
C         0.13419206473002    2.42585195887640    0.63157458363802
C         1.03014082582890   -4.21688548623847    0.75952229142898
C        -1.17748502887985    4.27864556133632   -0.12619361079113
C        -3.67361582261712   -1.94899353750201   -1.39658417470984
C        -4.25691327902610   -0.96133183610150   -0.34518385534316
C         4.23796310024706    0.91863698839511    0.25379195656297
C         3.73783149502013    1.93343622009934    1.32201479042876
Br        1.07490141937374   -5.98014934747329    1.51227491818176
Br       -1.32728992308044    6.14383583141027   -0.54304694626969
N        -2.48980396822145   -2.54227921902393   -0.85139980845664
N        -3.22732605287047   -0.00843330765146   -0.06704327175431
N         3.20997853359976   -0.06083438619098    0.09873378807100
N         2.48782380776329    2.49837154100341    0.90317748497733
H        -6.71421322817689   -3.30696017210406   -2.35773172351921
H        -5.87879036701903   -1.94029412817419   -3.10132929471048
H        -7.53626346916789   -1.13950172465453   -1.43998370545518
H        -6.76422633076344   -2.11379211215284   -0.18443224184985
H         7.60694151244472    1.20557851264460    0.98215773060988
H         6.67609564291094    2.09699674044767   -0.22643551887375
H         6.12773542681357    2.05726069430033    2.77737056497005
H         6.83261938976367    3.40245361600685    1.87674664506287
H        -4.81546111371714   -3.65296780689739   -0.80248794764666
H        -4.25559436910228   -3.70563098392102   -2.47539899387303
H        -5.45309225291305    0.15922778970848   -1.74222774855348
H        -6.01602692746066    0.24637150954431   -0.06184755919522
H         5.97418990667745   -0.29005023243192   -0.13300571043258
H         5.59135334584670   -0.10087256459098    1.58884512222520
H         4.39111259751451    3.74336755940606    2.26326196940598
H         4.76348467229723    3.63499987676806    0.54215024758780
H         0.97989532193879   -0.69188810280633   -0.73847430914208
H        -0.92381173951578    0.55264694448909    0.73777272572412
H        -1.02617382636652   -4.36900640859451    0.13707712549443
H        -3.22432353288670    3.88492159897134   -0.62245745795440
H         3.06695457200603   -3.81391950031161    1.29341206883175
H         0.90558234952428    4.40747413993634    0.40461864723188
H        -1.25955148746342   -1.03379625995612   -1.56507496295225
H        -4.25849214267614    1.75539543717796   -0.49633725966150
H         4.21868425232793   -1.75920069709340    0.78399555690692
H         1.34908562614278    0.90919200168197    1.60547300384606
H        -3.45193378771523   -1.36032808012327   -2.30500247737310
H        -4.39173418073328   -1.53081229877190    0.58410584847669
H         4.27732962904984    1.45553943182154   -0.70343019025435
H         3.62990689236456    1.37676271435027    2.26939916234464
