  64
  -95.164198749999997       0.99968789126354507      !md1
 C          7.2095701588        0.3866103115       -0.6725238333
 C          7.2118704415       -0.3819939197        0.6447920266
 C         -7.2115962044        0.3772310657       -0.6701871321
 C         -7.2116450940       -0.3947214304        0.6451500948
 C          5.9585594854        1.2505900390       -0.7805608266
 C          5.9592477198       -1.2428191905        0.7590579314
 C         -5.9613166480        1.2424275452       -0.7774179180
 C         -5.9582164738       -1.2549294294        0.7553581089
 C         -0.0012336619        0.9404326451       -1.2728915667
 C          0.0001048005       -0.9309308235        1.2631916137
 C          1.2056977404        2.8673705007       -0.4774472902
 C          1.2116816047       -2.8619531054        0.4846307890
 C         -1.2115940980        2.8651745037       -0.4773973110
 C         -1.2054389969       -2.8653163509        0.4836128987
 C          2.4553328055        0.8378511011       -1.1608706026
 C          2.4574472169       -0.8252652666        1.1512892630
 C         -2.4577596356        0.8337692355       -1.1610856742
 C         -2.4572008239       -0.8317294375        1.1495645977
 C          1.2084132946        1.5708904494       -0.9931677449
 C          1.2112066156       -1.5608833839        0.9890260640
 C         -1.2119353231        1.5686429822       -0.9932299202
 C         -1.2090497896       -1.5643798158        0.9879569007
 C         -0.0035688090        3.4950379249       -0.2458324959
 C          0.0041784788       -3.4945288055        0.2583507670
 C          4.6919024529        0.4039161897       -0.6801024288
 C          4.6937700555       -0.3936453765        0.6637424086
 C         -4.6937404567        0.3966592704       -0.6800741908
 C         -4.6939538747       -0.4037862664        0.6619532598
 Br        -0.0051957902        5.2787027465        0.4491566754
 Br         0.0069747355       -5.2846837812       -0.4197042578
 N          3.5413302462        1.2467187512       -0.6574315055
 N          3.5422011678       -1.2351345519        0.6459084282
 N         -3.5440397917        1.2406362585       -0.6566138232
 N         -3.5407078892       -1.2432129697        0.6428761395
 H          8.0955914592        1.0203854937       -0.7379102688
 H          7.2372922022       -0.3191376547       -1.5059110757
 H          8.0965365582       -1.0180631743        0.7058451814
 H          7.2456302333        0.3236045320        1.4780191977
 H         -8.0982400829        1.0103777204       -0.7330892671
 H         -7.2396550701       -0.3264351068       -1.5052890597
 H         -7.2444145522        0.3087958682        1.4801916448
 H         -8.0959026218       -1.0313591720        0.7059731103
 H          5.9404410136        1.9922488940        0.0196828472
 H          5.9446647516        1.7833424185       -1.7335768497
 H          5.9357938636       -1.9849443266       -0.0406228244
 H          5.9485018156       -1.7749646912        1.7124378289
 H         -5.9487435047        1.7774396489       -1.7291606711
 H         -5.9430381069        1.9822472484        0.0245080590
 H         -5.9460441963       -1.7904796986        1.7067861824
 H         -5.9347281984       -1.9941489355       -0.0469870311
 H         -0.0002119745       -0.0622165125       -1.6751646377
 H         -0.0015045570        0.0749310583        1.6573504722
 H          2.1465544845        3.3488636689       -0.2649353027
 H          2.1540955601       -3.3425094086        0.2770138696
 H         -2.1534365285        3.3445997256       -0.2645954357
 H         -2.1460367967       -3.3489627442        0.2749191285
 H          2.3819128126       -0.1102697717       -1.7130613259
 H          2.3848768000        0.1242671085        1.7011107431
 H         -2.3832876035       -0.1136958414       -1.7142440086
 H         -2.3869357827        0.1172812657        1.7005653818
 H          4.6472324046       -0.3371290773       -1.4963708151
 H          4.6535429888        0.3475377139        1.4800911359
 H         -4.6490971360       -0.3424310027       -1.4981241335
 H         -4.6550848474        0.3356283376        1.4799558979
  64
  -95.156570810000005        3.1210873645490071E-004 !md4
 C          7.1651537468        0.4877078587       -0.0544194425
 C          6.9386413309       -0.2882898049        1.2397794252
 C         -6.9919095108        0.4473316408       -0.0641631728
 C         -6.7853970933       -0.2802590977        1.2593975989
 C          5.9948424426        1.4255736679       -0.3313116852
 C          5.6312139534       -1.0717537121        1.1693419839
 C         -5.7765956040        1.3093051925       -0.3815088553
 C         -5.5339470900       -1.1461766289        1.1915678267
 C          0.1042512642        1.1924529515       -1.3430983972
 C          0.4123837756       -1.4220727092        0.9283431586
 C          1.2438747534        3.2324202563       -0.7568393469
 C          1.1825374792       -3.6308333170        0.3468482676
 C         -1.1731094640        3.1531590194       -0.7786711040
 C         -1.1821487548       -3.1441789579        0.3834204343
 C          2.5403486326        1.1447255630       -1.1332560629
 C          2.8564570060       -1.8889986117        0.8250231602
 C         -2.3409913872        1.0028274445       -1.1966634969
 C         -2.0156248967       -0.9082448155        1.0127141960
 C          1.2894605426        1.8853336133       -1.1140750304
 C          1.4627962199       -2.3140251261        0.7091529556
 C         -1.1265128398        1.8065846015       -1.1391024272
 C         -0.9083743815       -1.8294515332        0.7715851325
 C          0.0128300033        3.8452661317       -0.6204069307
 C         -0.1353129475       -4.0195421822        0.1837677858
 C          4.6771228026        0.6574418569       -0.3886580818
 C          4.4585828900       -0.1147360195        0.9464455951
 C         -4.4962454816        0.4786921299       -0.4536234685
 C         -4.2885429152       -0.3188525958        0.8692052424
 Br        -0.0536916291        5.7003655138       -0.1549357416
 Br        -0.5116406043       -5.8269073380       -0.3316182416
 N          3.5776313736        1.5601413642       -0.5464183751
 N          3.1386740123       -0.6631774425        0.9136364475
 N         -3.3776503538        1.3576574052       -0.5690694764
 N         -3.1937557383       -1.2143294047        0.6722518633
 H          8.0878096536        1.0662062888        0.0149874631
 H          7.2721089566       -0.2147137134       -0.8849902544
 H          7.7687127730       -0.9767214853        1.4113287412
 H          6.8989948709        0.4075611476        2.0805102807
 H         -7.8810834986        1.0779568818       -0.0124271074
 H         -7.1415213069       -0.2829513767       -0.8626654836
 H         -6.6817374803        0.4500931335        2.0649797489
 H         -7.6493007705       -0.9088024221        1.4824394280
 H          5.9182470334        2.1787482835        0.4539590667
 H          6.1403221457        1.9434302760       -1.2813737499
 H          5.6846320527       -1.7884781612        0.3456959765
 H          5.4715334851       -1.6245649458        2.0987610061
 H         -5.9099275621        1.8207486647       -1.3369855455
 H         -5.6431150762        2.0692185820        0.3903234957
 H         -5.3713356420       -1.6573023451        2.1427280465
 H         -5.6450609738       -1.9063248733        0.4163839324
 H          0.1402795873        0.1480023066       -1.6173509594
 H          0.6513296397       -0.4091096218        1.2131244365
 H          2.1662481313        3.7622513719       -0.5832619022
 H          1.9836578420       -4.3362904901        0.1849606074
 H         -2.1303862381        3.6237405046       -0.6229706765
 H         -2.2091440998       -3.4467514478        0.2578149750
 H          2.4934705399        0.1561401985       -1.6142130358
 H          3.5962033436       -2.6981666300        0.8038102461
 H         -2.2744654820        0.0571368309       -1.7540287457
 H         -1.7602708666        0.0367750569        1.5118007795
 H          4.7023837680       -0.0955543617       -1.1985022206
 H          4.4333817163        0.6362752172        1.7467749333
 H         -4.5431956983       -0.2547459054       -1.2764296290
 H         -4.0862244717        0.4187516065        1.6640457220
