  64
        -95.16419875
 C          7.2095701588        0.3866103115       -0.6725238333
 C          7.2118704415       -0.3819939197        0.6447920266
 C         -7.2115962044        0.3772310657       -0.6701871321
 C         -7.2116450940       -0.3947214304        0.6451500948
 C          5.9585594854        1.2505900390       -0.7805608266
 C          5.9592477198       -1.2428191905        0.7590579314
 C         -5.9613166480        1.2424275452       -0.7774179180
 C         -5.9582164738       -1.2549294294        0.7553581089
 C         -0.0012336619        0.9404326451       -1.2728915667
 C          0.0001048005       -0.9309308235        1.2631916137
 C          1.2056977404        2.8673705007       -0.4774472902
 C          1.2116816047       -2.8619531054        0.4846307890
 C         -1.2115940980        2.8651745037       -0.4773973110
 C         -1.2054389969       -2.8653163509        0.4836128987
 C          2.4553328055        0.8378511011       -1.1608706026
 C          2.4574472169       -0.8252652666        1.1512892630
 C         -2.4577596356        0.8337692355       -1.1610856742
 C         -2.4572008239       -0.8317294375        1.1495645977
 C          1.2084132946        1.5708904494       -0.9931677449
 C          1.2112066156       -1.5608833839        0.9890260640
 C         -1.2119353231        1.5686429822       -0.9932299202
 C         -1.2090497896       -1.5643798158        0.9879569007
 C         -0.0035688090        3.4950379249       -0.2458324959
 C          0.0041784788       -3.4945288055        0.2583507670
 C          4.6919024529        0.4039161897       -0.6801024288
 C          4.6937700555       -0.3936453765        0.6637424086
 C         -4.6937404567        0.3966592704       -0.6800741908
 C         -4.6939538747       -0.4037862664        0.6619532598
 Br        -0.0051957902        5.2787027465        0.4491566754
 Br         0.0069747355       -5.2846837812       -0.4197042578
 N          3.5413302462        1.2467187512       -0.6574315055
 N          3.5422011678       -1.2351345519        0.6459084282
 N         -3.5440397917        1.2406362585       -0.6566138232
 N         -3.5407078892       -1.2432129697        0.6428761395
 H          8.0955914592        1.0203854937       -0.7379102688
 H          7.2372922022       -0.3191376547       -1.5059110757
 H          8.0965365582       -1.0180631743        0.7058451814
 H          7.2456302333        0.3236045320        1.4780191977
 H         -8.0982400829        1.0103777204       -0.7330892671
 H         -7.2396550701       -0.3264351068       -1.5052890597
 H         -7.2444145522        0.3087958682        1.4801916448
 H         -8.0959026218       -1.0313591720        0.7059731103
 H          5.9404410136        1.9922488940        0.0196828472
 H          5.9446647516        1.7833424185       -1.7335768497
 H          5.9357938636       -1.9849443266       -0.0406228244
 H          5.9485018156       -1.7749646912        1.7124378289
 H         -5.9487435047        1.7774396489       -1.7291606711
 H         -5.9430381069        1.9822472484        0.0245080590
 H         -5.9460441963       -1.7904796986        1.7067861824
 H         -5.9347281984       -1.9941489355       -0.0469870311
 H         -0.0002119745       -0.0622165125       -1.6751646377
 H         -0.0015045570        0.0749310583        1.6573504722
 H          2.1465544845        3.3488636689       -0.2649353027
 H          2.1540955601       -3.3425094086        0.2770138696
 H         -2.1534365285        3.3445997256       -0.2645954357
 H         -2.1460367967       -3.3489627442        0.2749191285
 H          2.3819128126       -0.1102697717       -1.7130613259
 H          2.3848768000        0.1242671085        1.7011107431
 H         -2.3832876035       -0.1136958414       -1.7142440086
 H         -2.3869357827        0.1172812657        1.7005653818
 H          4.6472324046       -0.3371290773       -1.4963708151
 H          4.6535429888        0.3475377139        1.4800911359
 H         -4.6490971360       -0.3424310027       -1.4981241335
 H         -4.6550848474        0.3356283376        1.4799558979
