22
 energy: -25.837474584964 gnorm: 0.000407235957 xtb: 6.4.1 (23d549d)
C         1.94867512648193   -0.13001436289171   -0.02412474008018
C         1.26432223559714   -1.47919932391451    0.16524441301629
C         1.07670319588555    0.98818514219744    0.53569073235049
C        -0.11036473946140   -1.47193493262092   -0.49359852544683
C        -0.30189570507302    1.00447148688314   -0.12599715112757
C        -0.99198360978049   -0.35622215403933    0.06888986179339
N        -1.10995025535680    2.05643347931678    0.49036626476299
N        -2.27210540764201   -0.36247480547698   -0.63869386737050
H         2.12050544802220    0.04327732936106   -1.08899531776595
H         2.91777672440839   -0.12773619863034    0.47869834852221
H         1.15307703710350   -1.68254432014172    1.23286120724894
H         1.87550116380683   -2.27370293799087   -0.26752113354733
H         1.56176425055737    1.95474644601637    0.37822527881635
H         0.93940862994290    0.85455287929665    1.61058681276650
H        -0.60475813578159   -2.43381961952295   -0.33652450724894
H        -0.00999395567453   -1.31971037503587   -1.57011403473569
H        -0.17934086615052    1.15991302546681   -1.21279255557427
H        -1.11914760565188   -0.50915806937924    1.15548782506719
H        -1.96090189717971    2.19187327588959   -0.04594899710800
H        -0.60019366381329    2.93421914856337    0.46213979673458
H        -2.92577642438340    0.25445696799025   -0.16734447781669
H        -2.67132054585718   -1.29561108133707   -0.60653223325695
