  128
       -190.34119552
 C          4.7505996180       -4.3273655974        2.0747276799
 C          5.0458389804       -3.6534854672        3.4104045972
 C         -5.2111948658        1.7859099315       -4.5129806816
 C         -5.0200127464        0.8163687988       -5.6748889996
 C         -6.0449368635        3.1045911532        3.9345322875
 C         -6.4283729516        2.2182522196        2.7530626073
 C          7.3905766727       -0.3034606295       -2.2902855275
 C          7.2787138379        0.6800669216       -1.1303761181
 C          3.2872505577       -4.1349991361        1.6962191868
 C          4.6961148742       -2.1716700413        3.3434583744
 C         -5.0777761824        1.0563614023       -3.1808195426
 C         -3.6633227423        0.1280031542       -5.5765497176
 C         -4.5967426229        2.8583570814        4.3452098295
 C         -5.4864655604        2.4509417243        1.5760432323
 C          6.2273332959       -1.2874583444       -2.2593755258
 C          5.9496550483        1.4231891941       -1.1922142303
 C         -0.9946055274       -1.7394705322        0.2230228800
 C          0.3799552208        1.8346814106        3.4120243896
 C          0.3878039745       -1.8943678293       -3.2386740661
 C          0.2258172404        1.4133221888        0.0602132190
 C         -1.8590905980       -3.0659103141        2.0363633151
 C          2.6363619375        2.2455181802        2.6734575442
 C         -3.3755755459       -1.9344245663        0.5313711033
 C          0.9844351609        4.0021673472        2.5545758759
 C         -0.6358131096       -3.8444097478       -2.2668960604
 C         -1.1340855260        3.0324245213       -1.0918661781
 C          1.7090440040       -3.3943648210       -1.8941424537
 C          1.1452200220        2.6311979089       -1.7985510591
 C          0.5865144640       -2.8743329858        1.7639442714
 C          1.9885804924       -0.0311440468        3.3935328095
 C         -2.4929526229       -0.5612127574       -1.3344319628
 C         -1.3780378888        3.5400120469        3.0596973118
 C         -2.0519309239       -2.2415692111       -3.4804555007
 C         -2.0639726788        1.7970959412        0.8531724586
 C          2.7547500924       -1.3534956926       -2.8358741807
 C          2.5554266731        0.9702434373       -0.6006527651
 C         -0.7697947070       -2.5575774906        1.3287263868
 C          1.6725731992        1.3762564258        3.1884658382
 C         -2.2880181433       -1.4189235685       -0.1764530025
 C          0.0182458514        3.1342044551        3.0617237815
 C         -0.7417617636       -2.6838197449       -3.0310738585
 C         -0.9877307662        2.0828030992       -0.0810568952
 C          1.6077131362       -2.2342798283       -2.6660558252
 C          1.2970232564        1.6829124857       -0.7851511922
 C         -3.1409087946       -2.7447328404        1.6243608425
 C          2.2800346948        3.5475411224        2.3878673957
 C          0.5887027058       -4.1785070210       -1.7181074205
 C         -0.0666016408        3.2817341910       -1.9346556483
 C          2.9413652841       -2.6454905086        1.5966546888
 C          3.2289773344       -1.9659536560        2.9597159918
 C         -3.7170882940        0.3765492857       -3.0653510543
 C         -3.5246898252       -0.6226220277       -4.2551882393
 C         -3.6551106167        3.1206499747        3.1733814872
 C         -4.0418597569        2.1842340999        1.9845622243
 C          4.8850800307       -0.5599451220       -2.3243663419
 C          4.7666245084        0.4534396427       -1.1547881785
 Br        -4.6306126724       -3.4349802467        2.6073653501
 Br         3.5961218687        4.7443266338        1.6928194378
 Br         0.7006891149       -5.7610080493       -0.6571544073
 Br        -0.2804040979        4.5636378986       -3.3362915750
 N          1.5893809211       -2.3818661422        1.1739349213
 N          2.9792411116       -0.5664341379        2.8251378580
 N         -3.6320729844       -0.3747730066       -1.8542654364
 N         -2.3044728010        2.7991410293        3.5001190838
 N         -2.2121488628       -1.1511447287       -4.1037310409
 N         -3.1403785979        2.4589143735        0.9079672206
 N          3.8243294593       -1.5103572279       -2.1833862714
 N          3.5554363359        1.1895131583       -1.3404640921
 H          5.3858498250       -3.8958698016        1.2989815351
 H          4.9702000576       -5.3946687107        2.1362134112
 H          6.1014071351       -3.7659757404        3.6630010639
 H          4.4595668428       -4.1320108329        4.1988359978
 H         -4.4583764866        2.5752485879       -4.5706717135
 H         -6.1952648495        2.2533326092       -4.5745052424
 H         -5.8114422977        0.0635027736       -5.6557034279
 H         -5.0871963520        1.3519993734       -6.6231608673
 H         -6.1681274023        4.1539596198        3.6570214011
 H         -6.7022594069        2.9008773329        4.7814403404
 H         -7.4537358475        2.4304964886        2.4461000224
 H         -6.3774531762        1.1693805920        3.0542524794
 H          8.3328410731       -0.8508968045       -2.2294957244
 H          7.3795017858        0.2446370763       -3.2350232208
 H          8.0975982879        1.4004514066       -1.1684136506
 H          7.3500218307        0.1384262804       -0.1844415007
 H          3.0820841921       -4.6102555799        0.7367217059
 H          2.6511289730       -4.6116041947        2.4450578429
 H          4.8745844702       -1.6926982676        4.3087916573
 H          5.3169043865       -1.6706127081        2.5993601039
 H         -5.8547965141        0.2963153268       -3.0837094029
 H         -5.1851982761        1.7580360685       -2.3519733494
 H         -2.8597669888        0.8633346386       -5.6421224376
 H         -3.5369033716       -0.5837221449       -6.3949696608
 H         -4.4651473772        1.8266368566        4.6754839102
 H         -4.3186512779        3.5155556040        5.1718047592
 H         -5.5650810441        3.4798361647        1.2215764116
 H         -5.7428070078        1.7873236298        0.7484533905
 H          6.2562651470       -1.8744448680       -1.3404317735
 H          6.2890585938       -1.9790803286       -3.1020615635
 H          5.8854961093        2.0050300923       -2.1131981400
 H          5.8628343563        2.1158346229       -0.3533932059
 H         -0.1411078956       -1.3658284211       -0.3207788464
 H         -0.3814839307        1.1803521875        3.8076216480
 H          0.2828675097       -0.9984896674       -3.8308549115
 H          0.3429576265        0.6781205816        0.8421708825
 H         -1.7056605095       -3.7027295886        2.8946750990
 H          3.6353204598        1.8797720900        2.5020267472
 H         -4.3741474061       -1.6839596902        0.2112810001
 H          0.7196968142        5.0127531453        2.2824293541
 H         -1.5024598472       -4.4654143686       -2.0954937147
 H         -2.0752574056        3.5481181350       -1.1957071759
 H          2.6591215164       -3.6415009735       -1.4509056305
 H          1.9782454081        2.8379304780       -2.4511226964
 H          0.6492297354       -3.5495085956        2.6270871929
 H          1.2836450265       -0.5996591233        4.0194447037
 H         -1.5844035840       -0.0837215218       -1.7268826869
 H         -1.5893029383        4.5017042748        2.5688923661
 H         -2.9001362415       -2.8794003552       -3.1903611929
 H         -1.8631623546        0.9633094979        1.5428580575
 H          2.6189544504       -0.5315923704       -3.5529693778
 H          2.5734193659        0.2456141656        0.2255386251
 H          3.5751684708       -2.1697587593        0.8381805765
 H          2.5676539554       -2.4256288523        3.7189563144
 H         -2.9022488639        1.1153279452       -3.1398145677
 H         -4.3021840327       -1.4007296662       -4.1604039193
 H         -3.7554699820        4.1626457574        2.8216655268
 H         -3.9265562716        1.1484433532        2.3470247881
 H          4.7980309914        0.0137676000       -3.2628030572
 H          4.7562626471       -0.1175761313       -0.2105884854
