128
JYKSSIDNHAGOTC-XTVBVBRTSA-N (       -190.33474660)
 C          1.8659919568       -7.0031767268        3.9662705955
 C          2.6911765279       -6.2607661785        5.0118004460
 C         -5.8169644498       -0.5383506730       -4.6527434568
 C         -5.0150184514       -1.2593344407       -5.7320182152
 C         -5.2930419407        3.4016751443        3.6690729313
 C         -5.9363891513        2.8398098216        2.4071221732
 C          7.4055082951        2.3164857158       -4.3242398501
 C          7.2425212269        3.4182662547       -3.2828849855
 C          0.5529447506       -6.2727250716        3.7126871979
 C          2.9590144973       -4.8319640981        4.5541061711
 C         -5.4456291677       -1.0601024408       -3.2688381817
 C         -3.5190666121       -1.1043546793       -5.4804950918
 C         -3.9417126716        2.7396321732        3.9026418113
 C         -5.0278073801        3.0771698090        1.2075820139
 C          6.5644080593        1.1044682039       -3.9432765470
 C          5.7759952442        3.8116310659       -3.1582877641
 C         -2.3481350637       -2.2020187168        0.7409225530
 C          0.3006345782        0.3840121313        3.2945382589
 C          1.0430463813       -1.0886212578       -3.3945520726
 C          0.3952703337        2.2595368250       -1.1416465203
 C         -2.7437995920       -2.5125385790        3.0952606702
 C          2.5800303377       -0.1837739616        2.7705737663
 C         -4.2908757049       -1.2168413449        1.7687003436
 C          1.6920419975        1.9804559496        2.1487272356
 C          0.8822418134       -2.9885743128       -1.9240858279
 C         -1.3574173793        3.7040156018       -1.9448811102
 C          2.9732992771       -1.7993477027       -2.1378234407
 C          0.8564104123        3.8470942904       -2.8953259710
 C         -0.7207694659       -3.5024372390        2.0766737505
 C          1.1474877974       -1.8317979983        3.9488482337
 C         -3.9329271050       -0.8975158669       -0.6511749888
 C         -0.6826286961        2.5352446514        2.5874231173
 C         -1.1194237314       -2.2859101548       -3.1716091826
 C         -1.8417114448        2.1603351272       -0.0810520315
 C          3.1684961178        0.1413105990       -3.6563519486
 C          2.7062003283        2.4780182067       -2.0012384824
 C         -1.9543546788       -2.7341103461        1.9642365667
 C          1.3498211530       -0.5252215398        3.3367635350
 C         -3.5166457844       -1.4511691857        0.6336482854
 C          0.4554640208        1.6295530571        2.6886902574
 C          0.2849624235       -2.1121288136       -2.8290277717
 C         -0.9252385050        2.6947626621       -1.0848359487
 C          2.3830894610       -0.9314298364       -3.0610869262
 C          1.2983547374        2.8530709638       -2.0203412766
 C         -3.8921811030       -1.7570363905        2.9785209686
 C          2.7294678956        1.0643882557        2.2003252078
 C          2.2128905905       -2.8104110194       -1.5889784052
 C         -0.4639796525        4.2462805206       -2.8488391048
 C          0.8060249122       -4.8411357393        3.2369990475
 C          1.6554354565       -4.0813578980        4.2927504379
 C         -3.9445068049       -0.8821516535       -3.0091981767
 C         -3.1474486413       -1.6349454385       -4.0968270115
 C         -2.9932711537        2.9470023086        2.7213602414
 C         -3.6487312501        2.4467451640        1.3993632580
 C          5.0862533084        1.4676636637       -3.8131197623
 C          4.9091024985        2.6139807922       -2.7727113892
 Br        -4.9614072956       -1.4310910125        4.5306495521
 Br         4.4223772313        1.5419619808        1.4485734867
 Br         3.0141564763       -4.0097197884       -0.3341273383
 Br        -1.0699232476        5.6046464295       -4.0494169752
 N         -0.4396045286       -4.1531105872        3.1214412569
 N          1.9508857255       -2.7866524216        3.7584937338
 N         -3.5456626657       -1.4151803587       -1.7336976167
 N         -1.8359613115        2.1394943270        2.9185746381
 N         -1.7516996573       -1.4297010092       -3.8510363685
 N         -2.8042918063        2.8681559147        0.3272934345
 N          4.3663289891        0.3454501593       -3.3086918338
 N          3.5369114239        3.0071224026       -2.7937972349
 H          2.4315689835       -7.0654943063        3.0339916063
 H          1.6563393574       -8.0192358953        4.3051629433
 H          3.6399486524       -6.7748146740        5.1736821022
 H          2.1494062164       -6.2450513803        5.9604516920
 H         -5.6120165492        0.5334449912       -4.7024987242
 H         -6.8855179651       -0.6861148230       -4.8204696953
 H         -5.2748261805       -2.3205797645       -5.7298108347
 H         -5.2649747251       -0.8541404329       -6.7138952772
 H         -5.1607984054        4.4806928996        3.5635895812
 H         -5.9365148545        3.2207515250        4.5313717892
 H         -6.9017135628        3.3172938801        2.2311641965
 H         -6.1087022126        1.7694399510        2.5375640218
 H          8.4537101039        2.0220547002       -4.3986553066
 H          7.0889356621        2.6882114658       -5.3015331140
 H          7.8309700683        4.2927353517       -3.5657924969
 H          7.6061320987        3.0634310822       -2.3160564390
 H         -0.0318790960       -6.7934458547        2.9514614112
 H         -0.0418267211       -6.2331907392        4.6269524728
 H          3.5276551075       -4.2889129162        5.3114391463
 H          3.5414643823       -4.8343564725        3.6315745005
 H         -5.6894791790       -2.1223337964       -3.1897800136
 H         -6.0093197792       -0.5267401922       -2.5002936945
 H         -3.2314588041       -0.0529602613       -5.5362073954
 H         -2.9477656875       -1.6489770572       -6.2345469221
 H         -4.0726810844        1.6666230428        4.0488924308
 H         -3.4675975694        3.1436389134        4.7992686968
 H         -4.8877146153        4.1481483208        1.0514806130
 H         -5.4749201795        2.6653445730        0.3000821919
 H          6.8994076704        0.6997355010       -2.9868949626
 H          6.6631831132        0.3192668350       -4.6957321820
 H          5.4093284006        4.2090014023       -4.1063131665
 H          5.6522786465        4.5848415923       -2.3976693123
 H         -1.7567663103       -2.3565699352       -0.1482222987
 H         -0.6609184430        0.1388246012        3.7167701508
 H          0.5636899129       -0.4255224227       -4.0973653819
 H          0.7289963581        1.4788607736       -0.4725194776
 H         -2.4358961684       -2.9365779717        4.0373345548
 H          3.3861637460       -0.8992940817        2.7982320701
 H         -5.2012655718       -0.6406175373        1.7000225968
 H          1.8338404999        2.9472372939        1.6886779554
 H          0.3115963087       -3.7966810452       -1.4903324969
 H         -2.3788449858        4.0433796918       -1.8845428507
 H          4.0117256373       -1.6607882520       -1.8825329116
 H          1.5637926140        4.2895956765       -3.5779355429
 H         -0.0568114282       -3.4792180246        1.2009391094
 H          0.2428358459       -1.9305484390        4.5645015348
 H         -4.5976470772       -0.0239702377       -0.6023249801
 H         -0.4827346257        3.5435982442        2.1975490539
 H         -1.5950413773       -3.2030865911       -2.7976021226
 H         -1.6260694874        1.1509787404        0.2995964790
 H          2.6565533267        0.7476656198       -4.4166621352
 H          3.0003871599        1.7492056829       -1.2350312640
 H          1.3696827623       -4.8435039778        2.2884194471
 H          1.0473419056       -4.0145299668        5.2101296185
 H         -3.6945216630        0.1876267654       -3.0650989310
 H         -3.4145088806       -2.7026931947       -4.0097209026
 H         -2.7492983915        4.0152195948        2.5897998443
 H         -3.7109045579        1.3494250807        1.4744415941
 H          4.6797998378        1.8281228744       -4.7736022629
 H          5.2079729540        2.2109654845       -1.7913427912