128
JYKSSIDNHAGOTC-XTVBVBRTSA-N (       -190.34044325)
 C          4.3993923680       -4.8324946457        2.8476520058
 C          4.6840584450       -4.0700194937        4.1378391179
 C         -5.1548177957        1.8943214049       -4.0927977320
 C         -5.0399374459        0.9417666791       -5.2781479848
 C         -6.0168564166        3.1587254459        3.7769951645
 C         -6.4289832428        2.3128367197        2.5761609814
 C          7.4300577768        0.2431385686       -2.6447665710
 C          7.2756167471        1.2403008503       -1.5013554574
 C          2.9716915772       -4.5738393427        2.3809393147
 C          4.4438821181       -2.5779413292        3.9379913741
 C         -4.9870430973        1.1329898890       -2.7832369687
 C         -3.6947303233        0.2258494998       -5.2525642389
 C         -4.5742591499        2.8616247782        4.1714334285
 C         -5.4894021807        2.5575803385        1.4003778681
 C          6.3275417781       -0.8070539536       -2.5805034122
 C          5.9057204604        1.9044058283       -1.5616817297
 C         -1.0643335322       -1.8984348005        0.5887064549
 C          0.3215236640        1.6341963143        3.3735068467
 C          0.4744215155       -1.7294691165       -3.2533450343
 C          0.2217365542        1.6168664110       -0.2032507259
 C         -2.0790713467       -3.1189817279        2.4003191211
 C          2.6198561531        1.8657409340        2.6903632095
 C         -3.4634042042       -1.9361740380        0.8139423125
 C          1.0697625770        3.6894584051        2.3652365975
 C         -0.3612091684       -3.7867284562       -2.3239258757
 C         -1.2213143242        3.1862956025       -1.3238728832
 C          1.9870445344       -3.2361966739       -2.1413983218
 C          1.0573627302        2.8784970338       -2.0742361464
 C          0.3770877563       -3.0945189573        2.2254453789
 C          1.8342744993       -0.2960267568        3.6065056145
 C         -2.4469346020       -0.6438157174       -1.0311479477
 C         -1.3244854088        3.4113720232        2.8716975751
 C         -1.9526258905       -2.1791932283       -3.3165410444
 C         -2.0721103322        1.9082811742        0.6263883381
 C          2.8384274919       -1.0856165353       -3.0484141191
 C          2.5609160312        1.2883553264       -0.9019561004
 C         -0.9344417879       -2.7036673553        1.7197004193
 C          1.5954657980        1.0944585103        3.2447099585
 C         -2.3199325486       -1.5085015587        0.1348609911
 C          0.0443028767        2.9208792788        2.9142403986
 C         -0.5934582486       -2.5857378999       -2.9912026290
 C         -1.0191120469        2.2395343688       -0.3204205011
 C          1.7583522948       -2.0368763239       -2.8205458139
 C          1.2661121644        1.9362522653       -1.0652018184
 C         -3.3224473915       -2.7292063062        1.9341870932
 C          2.3412040281        3.1513680005        2.2741795039
 C          0.9267407243       -4.0910484585       -1.9213462573
 C         -0.1820213085        3.4787568558       -2.1879347013
 C          2.7432877021       -3.0765420862        2.1482103358
 C          3.0135898689       -2.3082460072        3.4688421747
 C         -3.6455683825        0.4073675646       -2.7315475988
 C         -3.5044291526       -0.5555347421       -3.9545555009
 C         -3.6255555430        3.1272818423        3.0057768671
 C         -4.0466509685        2.2461828275        1.7838399525
 C          4.9424372161       -0.1643474992       -2.6388372221
 C          4.7828833711        0.8674569983       -1.4901849224
 Br        -4.8874221072       -3.2890715469        2.8824537924
 Br         3.7385473158        4.2064894660        1.5125869996
 Br         1.2302453348       -5.7479107828       -1.0256206992
 Br        -0.4738666143        4.7540907155       -3.5812652176
 N          1.4383703600       -2.7533022660        1.6313961969
 N          2.8569030511       -0.9142092863        3.2029083623
 N         -3.5731309136       -0.3849567512       -1.5465276470
 N         -2.2940538017        2.7377512841        3.3290267352
 N         -2.1798902249       -1.0674098611       -3.8760653401
 N         -3.1574904144        2.5534170024        0.7083664389
 N          3.9476113673       -1.1771809932       -2.4524594487
 N          3.5316637420        1.5325942238       -1.6706740630
 H          5.0977690701       -4.5124796854        2.0719603245
 H          4.5389531241       -5.9031578314        3.0064835404
 H          5.7172045529       -4.2327108796        4.4489899611
 H          4.0324148981       -4.4410783065        4.9329338786
 H         -4.3829263685        2.6630128181       -4.1693948588
 H         -6.1267911526        2.3900955706       -4.1031929461
 H         -5.8457694039        0.2054639658       -5.2346954313
 H         -5.1379503361        1.4948573465       -6.2136625812
 H         -6.1132024828        4.2177093538        3.5268040906
 H         -6.6743425014        2.9510820178        4.6228048004
 H         -7.4510702704        2.5562959239        2.2817086455
 H         -6.3998087063        1.2554562437        2.8491851655
 H          8.4034126167       -0.2471738471       -2.5872283674
 H          7.3746456870        0.7718319398       -3.5990006950
 H          8.0510855233        2.0056042594       -1.5619987867
 H          7.3873136814        0.7216979936       -0.5465988388
 H          2.7735882975       -5.1091312233        1.4514790755
 H          2.2696060831       -4.9392315181        3.1334911992
 H          4.6143135148       -2.0355737647        4.8706046828
 H          5.1295840807       -2.1820238128        3.1875483133
 H         -5.7820804877        0.3937480062       -2.6711179217
 H         -5.0363401650        1.8168337723       -1.9339209947
 H         -2.8813709142        0.9483353004       -5.3388680943
 H         -3.6169704616       -0.4707890126       -6.0898763025
 H         -4.4704639792        1.8176188120        4.4718498364
 H         -4.2733247061        3.4867130398        5.0147464008
 H         -5.5464734568        3.5983507267        1.0773985505
 H         -5.7669522863        1.9248260010        0.5555626300
 H          6.4014781366       -1.3744757642       -1.6513109360
 H          6.4200320038       -1.5091640781       -3.4116297012
 H          5.7974262959        2.4617391208       -2.4934696709
 H          5.7839707745        2.6073176401       -0.7353146114
 H         -0.1689482542       -1.5881176017        0.0724120557
 H         -0.4874430073        1.0557589237        3.7924513491
 H          0.2717859508       -0.8085729840       -3.7777814834
 H          0.3777726820        0.8828912651        0.5744930720
 H         -1.9972684035       -3.7379318604        3.2812745112
 H          3.6041685404        1.4372936483        2.5935452104
 H         -4.4301479729       -1.6266911229        0.4507050203
 H          0.8700903903        4.6870553043        2.0040325605
 H         -1.1765861990       -4.4642774451       -2.1186775602
 H         -2.1833431155        3.6661666064       -1.4049273944
 H          2.9847452034       -3.4676830049       -1.8064244161
 H          1.8708173994        3.1198727471       -2.7393658747
 H          0.3546003025       -3.6837034860        3.1517544302
 H          1.0446672438       -0.7783106516        4.2030372297
 H         -1.5079936888       -0.2216069608       -1.4129631919
 H         -1.4721356013        4.3738040500        2.3602317774
 H         -2.7567571391       -2.8623304396       -3.0062521623
 H         -1.8497251803        1.0586163442        1.2890954714
 H          2.6117360985       -0.2710136966       -3.7507871680
 H          2.6357508236        0.5856893737       -0.0589330985
 H          3.4520234718       -2.7090038023        1.3968870799
 H          2.2885099582       -2.6619955467        4.2259998239
 H         -2.8092767074        1.1228147233       -2.7931381607
 H         -4.2707809663       -1.3431539415       -3.8490465182
 H         -3.6832222846        4.1824945053        2.6864791438
 H         -3.9448520677        1.1947437759        2.1014430714
 H          4.8010788919        0.3792766106       -3.5880695360
 H          4.8207283126        0.3156383225       -0.5347297582