128
JYKSSIDNHAGOTC-XTVBVBRTSA-N (       -190.33442850)
 C          4.7316135920       -4.5103649068        4.4827066154
 C          4.9136977519       -3.5424876225        5.6464864119
 C         -6.4642498758        0.7700528584       -3.0832642912
 C         -6.2510346904       -0.0680164645       -4.3401219317
 C         -6.0771220496        3.3807263276        3.6153820455
 C         -6.4506548118        2.7444116944        2.2801050942
 C          6.7594273202       -0.7172705577       -1.1751243856
 C          6.3117023181       -0.3441389424        0.2333213803
 C          3.2927917421       -4.4656491362        3.9837628146
 C          4.5533390616       -2.1273679967        5.2121842658
 C         -5.9299459129        0.0366719488       -1.8583258258
 C         -4.7751026076       -0.4093535176       -4.5132245759
 C         -4.6807568665        2.9433632480        4.0444536605
 C         -5.4215240193        3.1011296494        1.2136604757
 C          5.6341431459       -1.4416193388       -1.9026444881
 C          5.0622986513        0.5248042834        0.1768552662
 C         -0.8923704146       -1.6634306833        0.8947080832
 C          0.2517932757        1.6838193064        3.6762494906
 C         -0.0789560062       -1.9825273433       -3.2462897963
 C          0.2977533556        2.0781104840       -0.3039248133
 C         -1.2692624421       -3.1011374927        2.7907285570
 C          2.5758091502        1.8172686187        3.0566614187
 C         -3.1293805983       -2.3780380043        1.4330263243
 C          1.0597826346        3.5891254734        2.4402215827
 C         -0.4785374681       -3.6599721541       -4.9244845938
 C         -0.9804193144        3.9782019796       -1.0486950301
 C          1.7846632719       -3.1008955232       -4.2781190868
 C          1.3066508206        3.6919058287       -1.7769487161
 C          1.0392181535       -2.4091891804        2.2540777620
 C          1.7780080860       -0.1637478279        4.2940018288
 C         -2.7829245843       -0.8969609389       -0.5109866448
 C         -1.3330527668        3.4563152979        2.9573597819
 C         -2.4046496157       -2.4864396509       -3.8982274182
 C         -2.0032494465        2.3612576234        0.5267273862
 C          2.1970712277       -1.4175959850       -2.4986558108
 C          2.6391581162        1.7468714604       -1.0601650362
 C         -0.3909305635       -2.3870083617        1.9734059841
 C          1.5279427980        1.1334174081        3.6782933604
 C         -2.2573801145       -1.6548176229        0.6174370366
 C          0.0105285995        2.9091918287        3.0576428512
 C         -0.9696559218       -2.7117103794       -4.0293984272
 C         -0.8894661353        2.8020050697       -0.3004788880
 C          1.2922371258       -2.1753425668       -3.3563623368
 C          1.3993962875        2.5105877217       -1.0408785384
 C         -2.6200440728       -3.0834999132        2.5054292316
 C          2.3226682477        3.0266849764        2.4465748181
 C          0.8908099966       -3.8255799078       -5.0409714853
 C          0.1182076599        4.4004553403       -1.7701167186
 C          2.8925291025       -3.0571603826        3.5415782636
 C          3.1153757997       -2.0449956913        4.6993854597
 C         -4.4477939592       -0.2903756855       -2.0281744709
 C         -4.2452903114       -1.1630461534       -3.2866089641
 C         -3.6443466521        3.3134067464        2.9875667462
 C         -4.0271605618        2.6400389620        1.6268070503
 C          4.3635773157       -0.5826932274       -1.9734193145
 C          3.9089085661       -0.1857317268       -0.5449284449
 Br        -3.8202374785       -4.0640948651        3.6276779603
 Br         3.7426442230        3.9464338272        1.5648296489
 Br         1.5622728492       -5.1092915421       -6.2931198423
 Br         0.0001630285        6.0216819907       -2.7837761432
 N          1.4977680565       -3.0557610324        3.2372892710
 N          2.8941131086       -0.7398727890        4.1622316353
 N         -3.9820987297       -1.0199849921       -0.8862877897
 N         -2.3567343907        2.8148618516        3.3377960544
 N         -2.8405521846       -1.3993653971       -3.4294440480
 N         -3.0578783974        3.0488519782        0.6646519364
 N          3.4214157760       -1.3030549251       -2.7706161376
 N          2.7033738301        0.6016154022       -0.5209079877
 H          5.4095484816       -4.2368795838        3.6709412469
 H          4.9745903339       -5.5268035553        4.7969236909
 H          5.9476287209       -3.5631803799        5.9950588058
 H          4.2713314175       -3.8451283257        6.4764167812
 H         -5.9434743808        1.7245244813       -3.1900803151
 H         -7.5271449300        0.9786872613       -2.9506841861
 H         -6.8300452677       -0.9911578047       -4.2643227470
 H         -6.6004238907        0.4784295391       -5.2180146978
 H         -6.1025694422        4.4687050306        3.5196733364
 H         -6.7993186940        3.0932190369        4.3812111880
 H         -7.4367648420        3.0894462367        1.9647931954
 H         -6.4930190664        1.6587376918        2.3937815734
 H          7.6397676570       -1.3607113960       -1.1317463716
 H          7.0296659635        0.1869961904       -1.7249553744
 H          7.1043461059        0.1992858674        0.7506766099
 H          6.0998300949       -1.2531612277        0.8006354283
 H          3.1593129588       -5.1445278760        3.1387719621
 H          2.6106203110       -4.7782314652        4.7760963474
 H          4.6624787687       -1.4320019409        6.0469576991
 H          5.2190643061       -1.7985962655        4.4123938646
 H         -6.4742224322       -0.8971598840       -1.7073258505
 H         -6.0574612837        0.6460108192       -0.9622439990
 H         -4.1881835987        0.5024899147       -4.6414647541
 H         -4.6281095971       -1.0325140738       -5.3985759240
 H         -4.6507583111        1.8630786662        4.1959236585
 H         -4.4043062038        3.4234367537        4.9854052401
 H         -5.3969775464        4.1804449828        1.0546048367
 H         -5.6767818696        2.6284741767        0.2636344591
 H          5.3944241550       -2.3727422513       -1.3836062779
 H          5.9309488108       -1.6927985895       -2.9214589362
 H          5.2886315155        1.4603959203       -0.3387061047
 H          4.7310844288        0.7721934822        1.1867765442
 H         -0.2117332776       -1.1118229202        0.2618472767
 H         -0.5765667431        1.1703311128        4.1390622946
 H         -0.4809564899       -1.2602946746       -2.5542226646
 H          0.3919921769        1.1770357087        0.2820014168
 H         -0.8698989468       -3.6547406958        3.6250465874
 H          3.5599717018        1.3783695726        3.0711937867
 H         -4.1832208799       -2.3662351312        1.2060857315
 H          0.8830982278        4.5370811753        1.9546619278
 H         -1.1546730496       -4.2442913665       -5.5299345621
 H         -1.9038854276        4.5343220222       -1.0391026551
 H          2.8500459864       -3.2380057029       -4.3688173914
 H          2.1531492295        4.0491049547       -2.3434548495
 H          1.6797809999       -1.8472126455        1.5591215785
 H          0.9444883013       -0.6004037359        4.8610712852
 H         -2.0782289140       -0.2182397488       -1.0112136309
 H         -1.4083291836        4.4496572412        2.4907621197
 H         -3.0625925069       -3.3017418777       -4.2307736712
 H         -1.8631246375        1.3980313645        1.0383346336
 H          1.7282312374       -0.9415471146       -1.6271235662
 H          3.4737170026        2.2228920099       -1.5864927859
 H          3.5055873507       -2.7230558354        2.6869068468
 H          2.3965167752       -2.2949412147        5.4979843232
 H         -3.8593233047        0.6305735718       -2.1794228810
 H         -4.8066822760       -2.1050192379       -3.1702544046
 H         -3.6320115811        4.4036329383        2.8156787811
 H         -4.0050082636        1.5494488733        1.7919287874
 H          4.5965651217        0.3321140689       -2.5358445346
 H          3.6645897099       -1.1122006587       -0.0042271023