128
JYKSSIDNHAGOTC-XTVBVBRTSA-N (       -190.33717792)
 C          4.3945798986       -4.1458083737        2.4606860834
 C          4.5213730019       -3.5072595370        3.8399509007
 C         -5.2274083927        1.6786553288       -4.8557006622
 C         -4.9102887260        0.7384951961       -6.0143825308
 C         -5.6111182846        2.5207010602        4.3238429152
 C         -6.0163379528        1.5845635823        3.1882812954
 C          7.4925197944       -0.4477962934       -2.6082002417
 C          7.4682598188        0.5562033496       -1.4602088285
 C          2.9782147007       -3.9803960901        1.9237197843
 C          4.1492799480       -2.0303194037        3.7646002664
 C         -5.1696284277        0.9284532627       -3.5298128335
 C         -3.5397470959        0.0986729370       -5.8226758767
 C         -4.1164957046        2.4124877420        4.6112457568
 C         -5.1971883717        1.8713371830        1.9334957651
 C          6.3070803718       -1.4008168293       -2.5061751410
 C          6.1555347918        1.3310290548       -1.4601890471
 C         -1.2663400493       -1.7526974121        0.1529766840
 C          0.9092048120        2.0030772109        3.2449415187
 C          0.4335744321       -1.8729091421       -3.3171296058
 C          0.4729200836        1.1933885585        0.0840773876
 C         -2.2140196384       -3.1224505882        1.8897360664
 C          3.0821790880        2.9109720642        2.7401473748
 C         -3.6524901788       -2.0606157683        0.2620560823
 C          1.1329504868        4.3339580274        2.6841310807
 C         -0.6258175583       -3.7784758837       -2.2977106911
 C         -1.0305091536        2.7340121657       -0.9990392213
 C          1.7149559267       -3.3365280952       -1.8949743834
 C          1.2309268081        2.4678078443       -1.8149068269
 C          0.2299756766       -2.7941472522        1.8361836349
 C          2.8898594570        0.5017643922        3.1968481961
 C         -2.6807190811       -0.6211105597       -1.5083304664
 C         -1.1162697502        3.4286511016        3.0875869556
 C         -2.0017489505       -2.2332097124       -3.6226802742
 C         -1.7863177504        1.4535479299        0.9921980504
 C          2.8084070714       -1.3618818882       -2.9229847167
 C          2.7699387739        0.8617700585       -0.7052316689
 C         -1.0949920738       -2.5599206965        1.2754669392
 C          2.2787134735        1.8212305925        3.0755316989
 C         -2.5357709600       -1.4882732179       -0.3495181381
 C          0.3277648508        3.2508851143        3.0426974730
 C         -0.7061263214       -2.6463280067       -3.1066609020
 C         -0.7809275609        1.7942602193        0.0011721186
 C          1.6412234181       -2.2069385769       -2.7141592393
 C          1.4806665668        1.5256233909       -0.8158806214
 C         -3.4701314205       -2.8658951834        1.3686262826
 C          2.4951097607        4.1476525072        2.5520367301
 C          0.5828616049       -4.1014357418       -1.7089378726
 C         -0.0211099744        3.0485263746       -1.8897579087
 C          2.5739958611       -2.5024080262        1.8598660148
 C          2.7084793101       -1.8699126888        3.2719781951
 C         -3.7964832702        0.2980266401       -3.3198534072
 C         -3.4727362618       -0.6707466809       -4.5065182507
 C         -3.3095182852        2.7309172394        3.3551701324
 C         -3.7091775653        1.7270679556        2.2304968495
 C          4.9839176660       -0.6366224441       -2.5144851228
 C          4.9583808066        0.3874799926       -1.3472516825
 Br        -5.0016954419       -3.6330734503        2.2220654393
 Br         3.5981983740        5.6339957954        2.0645043468
 Br         0.6585657567       -5.6489157563       -0.5966678737
 Br        -0.3723585429        4.3225582074       -3.2712531021
 N          1.2634026990       -2.3045319406        1.2982203332
 N          2.1767390933       -0.5397846535        3.2146778654
 N         -3.7792561329       -0.4733158444       -2.1196157660
 N         -1.9073894604        2.5694746350        3.5712391562
 N         -2.1551881024       -1.1535714076       -4.2666415454
 N         -2.9083755989        2.0306465705        1.0836683235
 N          3.9006377193       -1.5510819307       -2.3164985812
 N          3.7457157777        1.1349572080       -1.4589239854
 H          5.1013081539       -3.6740917298        1.7737445908
 H          4.6371949825       -5.2083925149        2.5144010982
 H          5.5443451184       -3.6091957948        4.2073036447
 H          3.8598048394       -4.0171651963        4.5439312985
 H         -4.5026697727        2.4958392172       -4.8419272441
 H         -6.2207535501        2.1110048872       -4.9865337116
 H         -5.6715833627       -0.0432395705       -6.0682624295
 H         -4.9249613918        1.2887368929       -6.9566107441
 H         -5.8509303174        3.5502353411        4.0479197221
 H         -6.1733431427        2.2749869499        5.2262963737
 H         -7.0779091003        1.7068893437        2.9674008799
 H         -5.8545022148        0.5488151965        3.4955312145
 H          8.4220195577       -1.0192874448       -2.5861071428
 H          7.4480201766        0.0868883185       -3.5595549050
 H          8.3015609986        1.2544155538       -1.5553370776
 H          7.5793117489        0.0265803479       -0.5110021757
 H          2.9071040645       -4.4054120399        0.9222067531
 H          2.2766099071       -4.5189320118        2.5634862876
 H          4.2436514610       -1.5606619427        4.7471913622
 H          4.8345135130       -1.5298968267        3.0761420001
 H         -5.9214472191        0.1378571023       -3.5070998292
 H         -5.3681038792        1.6071780372       -2.6981270040
 H         -2.7624428220        0.8645156685       -5.8147675653
 H         -3.3244024070       -0.5921559359       -6.6404782678
 H         -3.8635422503        1.4047403839        4.9442410392
 H         -3.8299633712        3.1107183629        5.4004623592
 H         -5.3875284663        2.8848129872        1.5766035934
 H         -5.4664355366        1.1780917073        1.1348656552
 H          6.3649086471       -1.9797292626       -1.5827757873
 H          6.3089275372       -2.1024614661       -3.3426294481
 H          6.0544519614        1.9037419712       -2.3833405817
 H          6.1268012460        2.0349915147       -0.6256709137
 H         -0.3917833325       -1.3326857324       -0.3177878124
 H          0.2914320172        1.1645974771        3.5198050284
 H          0.3496387421       -1.0004530058       -3.9463604511
 H          0.6712697588        0.4652252721        0.8574583916
 H         -2.1024467483       -3.7494737130        2.7614218486
 H          4.1467854828        2.7879209346        2.6097706551
 H         -4.6321882056       -1.8552086554       -0.1380246807
 H          0.6954234181        5.3061731310        2.5144294879
 H         -1.5002256659       -4.3882323615       -2.1258092248
 H         -2.0051469156        3.1919609565       -1.0566331988
 H          2.6551358899       -3.5808460217       -1.4290344675
 H          2.0174865332        2.7212795973       -2.5074916497
 H          0.2444433732       -3.4016605623        2.7486429657
 H          3.9847259292        0.5022160581        3.2422241577
 H         -1.7656753750       -0.0930332552       -1.8117478700
 H         -1.4864387921        4.3564631468        2.6242723734
 H         -2.8475687403       -2.8916632237       -3.3756118633
 H         -1.4842738440        0.6661480197        1.6968589913
 H          2.6736965691       -0.5418442075       -3.6425077184
 H          2.8305011527        0.1009091290        0.0864645230
 H          3.2613749476       -1.9706901440        1.1867024034
 H          2.0333195357       -2.4161085460        3.9443415577
 H         -3.0079282120        1.0682543627       -3.3189548931
 H         -4.2241128603       -1.4789802149       -4.4831630361
 H         -3.5497272426        3.7469881225        2.9936400165
 H         -3.4873370913        0.7159296062        2.6122528477
 H          4.8698898760       -0.0651603996       -3.4513973551
 H          4.9996896169       -0.1846441876       -0.4030763134