128
JYKSSIDNHAGOTC-XTVBVBRTSA-N (       -190.33368138)
 C         -0.0574497972       -7.0946592053        4.4299930234
 C          0.5881984689       -6.3918375674        5.6203256951
 C         -4.3581899110       -3.8223774616       -6.8760005097
 C         -3.0675322171       -4.3875713748       -7.4624984992
 C         -2.0308300119        6.0486621190        6.5954342335
 C         -3.1631095787        6.2738723066        5.5971819299
 C          5.8049507894        4.2993346818       -4.5524701513
 C          5.3609212580        5.3637185509       -3.5535452078
 C         -1.0263407035       -6.1590384471        3.7152202556
 C          1.2952013422       -5.1175098865        5.1715009330
 C         -4.3050289697       -3.8216986946       -5.3517053283
 C         -1.8590751132       -3.6032030899       -6.9612690255
 C         -1.4101155417        4.6685086446        6.4040727921
 C         -2.6668715786        6.0940235802        4.1661716870
 C          5.4738545759        2.9042626011       -4.0332236281
 C          3.8710637526        5.2331358300       -3.2561617923
 C         -2.3187827793       -2.9525475555       -0.6560465343
 C          0.6572907257        0.5879722635        4.1709609344
 C          1.3947385857       -1.2537426822       -3.8250323543
 C         -0.2544335217        3.7917491805        0.2134491270
 C         -2.7598282597       -1.9018258959        1.4644465102
 C          2.3395165949       -0.6979570360        3.0161113081
 C         -3.7181488683       -0.9955510194       -0.5614436833
 C          2.3995702590        1.7163876865        2.9548518725
 C          1.6941783202       -3.0457610231       -2.2482218264
 C         -2.4170212795        2.9907978913       -0.4784890271
 C          3.0616258871       -1.0603892935       -2.0923492201
 C         -0.5663488391        2.9865795144       -2.0337315695
 C         -1.2419901264       -3.8491659469        1.3820099477
 C          0.5592536650       -1.8698499052        4.2819148942
 C         -3.2671039579       -2.0284268602       -2.7525023196
 C          0.6946746960        3.0711307184        4.0922175718
 C         -0.0337786887       -3.2819454510       -3.9776432624
 C         -2.1296705973        3.7844207222        1.8361440825
 C          2.7734597564        0.7839728848       -3.7231271231
 C          1.6853300202        3.7080396817       -1.3188589402
 C         -2.1302425499       -2.9021936267        0.7205921894
 C          1.1947765781       -0.6450566169        3.8169062895
 C         -3.1112974274       -2.0075592265       -1.3035200386
 C          1.2538102634        1.7733934468        3.7465581321
 C          1.0333819510       -2.5143621602       -3.3545144854
 C         -1.5930262610        3.5381965409        0.5036036449
 C          2.4067423799       -0.5270477640       -3.2064179381
 C          0.2679593487        3.5111863690       -1.0442035538
 C         -3.5370793963       -0.9701966042        0.8091490153
 C          2.9161940952        0.4835936595        2.5990096146
 C          2.6896697050       -2.3072258709       -1.6344356983
 C         -1.8878420304        2.7357028343       -1.7302237490
 C         -0.3007204788       -4.8929374512        3.2468764042
 C          0.3148974747       -4.1779802523        4.4673121177
 C         -3.1033606932       -3.0080087139       -4.8627705624
 C         -1.8071999732       -3.6258139866       -5.4353086295
 C         -0.9003843518        4.5095471770        4.9733612991
 C         -2.0720781852        4.6948956081        3.9823765476
 C          3.9759392759        2.7773907286       -3.7510752153
 C          3.5553388557        3.8361681354       -2.7109146182
 Br        -4.3637428553        0.4199757325        1.8225509053
 Br         4.4745269042        0.4381425285        1.4927522622
 Br         3.5625919753       -3.0545607629       -0.1069744788
 Br        -3.0161131829        1.9807958051       -3.0716885095
 N         -1.2319350361       -3.9930341810        2.6351727503
 N          1.0079937869       -3.0154532518        4.0024046114
 N         -3.0097272457       -3.0585923626       -3.4345852790
 N         -0.3638584324        3.1978088175        4.7685243946
 N         -0.7067751109       -2.8464185646       -4.9530198153
 N         -1.5460333422        4.5426397699        2.6590649159
 N          3.6911903398        1.4827504615       -3.2117368470
 N          2.1463527462        3.7006894590       -2.4930292515
 H          0.7195965836       -7.4130380178        3.7315165886
 H         -0.5938606568       -7.9836204628        4.7670026832
 H          1.3075221722       -7.0575029644        6.1004128353
 H         -0.1806721705       -6.1403356970        6.3546033093
 H         -4.5013752132       -2.7995882456       -7.2314793191
 H         -5.2104782325       -4.4176123034       -7.2087827574
 H         -2.9645515372       -5.4353294831       -7.1705429432
 H         -3.1045554407       -4.3444110922       -8.5523836398
 H         -1.2633130352        6.8128767493        6.4522089238
 H         -2.4103973385        6.1403222338        7.6145605203
 H         -3.5697834244        7.2798138215        5.7160914247
 H         -3.9663844190        5.5598485106        5.7918633720
 H          6.8794804708        4.3774509472       -4.7265920641
 H          5.2963803018        4.4611497013       -5.5057372915
 H          5.5652484912        6.3589391146       -3.9527425140
 H          5.9260874840        5.2489283056       -2.6259498412
 H         -1.4657491063       -6.6547211730        2.8464834369
 H         -1.8383971833       -5.8691827672        4.3846916372
 H          1.7264363163       -4.5983587689        6.0298366530
 H          2.1051976210       -5.3533606665        4.4793836210
 H         -4.2165618481       -4.8415972616       -4.9729743585
 H         -5.2169840282       -3.3849835930       -4.9386606175
 H         -1.9146149769       -2.5649832993       -7.2921645385
 H         -0.9357941196       -4.0337101207       -7.3541568345
 H         -2.1477367164        3.8885616971        6.5992351923
 H         -0.5772600535        4.5259930969        7.0955884649
 H         -1.9004734285        6.8352675425        3.9324120119
 H         -3.4890638855        6.2223830895        3.4587242057
 H          6.0179083317        2.7010869685       -3.1093936944
 H          5.7602616600        2.1470660682       -4.7659193953
 H          3.2866516862        5.3947724541       -4.1638622695
 H          3.5618318773        5.9773327742       -2.5186129097
 H         -1.8507966252       -3.7195516886       -1.2522145046
 H         -0.2286443988        0.6541793259        4.7828683402
 H          0.8713357201       -0.8604302008       -4.6824045684
 H          0.3662514216        4.2053705674        0.9921647302
 H         -2.6110759958       -1.8733242028        2.5317308056
 H          2.7458605662       -1.6590388028        2.7443389806
 H         -4.3222159165       -0.2494196935       -1.0548855466
 H          2.8794053117        2.6248529156        2.6235816231
 H          1.4321667608       -4.0241037758       -1.8747267982
 H         -3.4520673512        2.7763030294       -0.2598973397
 H          3.8423980062       -0.4872569588       -1.6184257602
 H         -0.1532946826        2.7762918695       -3.0069839198
 H         -0.5707063830       -4.4141638981        0.7197545083
 H         -0.3418836086       -1.7284349157        4.8967625985
 H         -3.6051626542       -1.0886918333       -3.2102243423
 H          1.2466826543        3.9428494116        3.7104988508
 H         -0.2311923882       -4.2680651029       -3.5316416874
 H         -3.0619100180        3.2570430086        2.0805573490
 H          2.1942283439        1.1256559947       -4.5936507943
 H          2.3266041463        3.8436516782       -0.4363426295
 H          0.5095764037       -5.1699161949        2.5509766664
 H         -0.5116978975       -3.9080539308        5.1491529104
 H         -3.1926452420       -1.9685985822       -5.2227411614
 H         -1.7512388402       -4.6662238578       -5.0690510199
 H         -0.1514509262        5.2883540241        4.7445191580
 H         -2.8443585837        3.9363340103        4.1971239776
 H          3.3969207342        2.9651924934       -4.6732977381
 H          4.1252819139        3.6670856029       -1.7812506774