128
JYKSSIDNHAGOTC-XTVBVBRTSA-N (       -190.34010996)
 C          4.3698858735       -4.7187158411        3.4139733732
 C          4.5539486067       -3.8492361393        4.6525066420
 C         -5.6698548110        1.8269198661       -3.2182138282
 C         -5.3131831638        1.2442239029       -4.5819758946
 C         -5.9021141303        4.0694652133        3.6163675871
 C         -6.4104086684        3.3241719905        2.3860152092
 C          7.4302145207        0.4839574526       -2.6271917754
 C          7.2937965469        1.4703426973       -1.4723715543
 C          2.9330186780       -4.6084073911        2.9179714883
 C          4.2202376876       -2.3988923587        4.3284859530
 C         -5.4649240902        0.7850036818       -2.1251960349
 C         -3.8769280462        0.7331646637       -4.5845783478
 C         -4.5195903856        3.5649097166        4.0155012017
 C         -5.4262800486        3.4652204632        1.2301247342
 C          6.3184102955       -0.5562627905       -2.5639372166
 C          5.9303185231        2.1484484322       -1.5159717542
 C         -1.2399971179       -2.3264192910        0.7899257724
 C          0.2499906405        1.8122824281        3.3064993951
 C          0.4252106778       -1.4010689330       -3.0683952064
 C          0.1792716727        1.9131957881       -0.3134574332
 C         -2.0164924779       -4.3673476563        1.8049582051
 C          2.5819414761        1.8524340540        2.7045197440
 C         -3.5456609166       -2.9881371244        0.5459821952
 C          1.1978544086        3.7888044120        2.3044023780
 C         -0.3713163182       -3.4796398302       -2.1482233846
 C         -1.1356879395        3.5855118800       -1.4455662756
 C          1.9787852426       -2.9271900028       -2.0394064337
 C          1.1452091441        3.1720251418       -2.1240708296
 C          0.3452229257       -3.7560839522        2.0813484878
 C          1.6266317932       -0.2116338062        3.6696942614
 C         -2.7549792649       -0.9401780814       -0.5851156527
 C         -1.2153004819        3.7361992361        2.7581564417
 C         -2.0023223476       -1.8863241356       -3.0763503654
 C         -2.1115218623        2.3679528839        0.4767460716
 C          2.8053045483       -0.7788593520       -2.9582583512
 C          2.5408781963        1.5131448328       -0.9340392899
 C         -0.9834454582       -3.4647514375        1.5519870451
 C          1.4813898302        1.1722116794        3.2328648547
 C         -2.5113022698       -2.0878850232        0.2771236694
 C          0.0961460970        3.1126047952        2.8269606686
 C         -0.6285389504       -2.2672383034       -2.7864592522
 C         -1.0183264627        2.6117360875       -0.4537771824
 C          1.7250098277       -1.7202618658       -2.6957552164
 C          1.2694411596        2.1993071018       -1.1302786683
 C         -3.2807316413       -4.1081215951        1.3064629605
 C          2.4233743314        3.1493541680        2.2621260127
 C          0.9279803929       -3.7833444211       -1.7843951542
 C         -0.0562257780        3.8372910772       -2.2706789315
 C          2.5981620499       -3.1622728373        2.5435689008
 C          2.7993255664       -2.2408501045        3.7756062415
 C         -4.0230468697        0.2859945647       -2.1052866465
 C         -3.6671864305       -0.3218981168       -3.5017959254
 C         -3.5302787985        3.7268949048        2.8647119931
 C         -4.0498409819        2.9354085034        1.6200195480
 C          4.9389547278        0.0987420902       -2.6063719704
 C          4.7950241683        1.1257323678       -1.4479486225
 Br        -4.6944373714       -5.3480748659        1.6683997581
 Br         3.9281031789        4.0860448126        1.5527978963
 Br         1.2645736799       -5.4343758197       -0.8926271036
 Br        -0.2285326894        5.1574861046       -3.6427526258
 N          1.2838441424       -2.9131124249        2.0187684584
 N          2.6503802632       -0.8809236522        3.3649223436
 N         -3.8765705710       -0.7544077088       -1.1426607816
 N         -2.2606938153        3.1716886806        3.1955856400
 N         -2.2985325952       -0.7098439493       -3.4386543179
 N         -3.1135940306        3.1369737014        0.5603903752
 N          3.9366059375       -0.9017875908       -2.4104479591
 N          3.5538972612        1.8057164468       -1.6286542020
 H          5.0562368788       -4.3935831089        2.6296959611
 H          4.5948150773       -5.7607047353        3.6487852379
 H          5.5832881056       -3.9121918634        5.0093377558
 H          3.8993795231       -4.2077090237        5.4508081335
 H         -5.0371876766        2.6934880471       -3.0150360238
 H         -6.7092952173        2.1593070513       -3.2140118789
 H         -5.9917394683        0.4203028095       -4.8147378386
 H         -5.4289539890        2.0050877170       -5.3554477861
 H         -5.8476553924        5.1382509588        3.3971897248
 H         -6.5939251166        3.9315185115        4.4489866419
 H         -7.3827865995        3.7185322312        2.0864776263
 H         -6.5355535983        2.2659111736        2.6271056031
 H          8.3992745751       -0.0160608077       -2.5826476234
 H          7.3719978709        1.0228527668       -3.5755419883
 H          8.0760168213        2.2288069694       -1.5308239714
 H          7.4076253476        0.9409053330       -0.5239302056
 H          2.7813435396       -5.2454831849        2.0434232035
 H          2.2633933848       -4.9463955308        3.7129215026
 H          4.3131487214       -1.7775497313        5.2219462356
 H          4.9139022897       -2.0153493554        3.5787179157
 H         -6.1239096265       -0.0698871748       -2.2860577796
 H         -5.6964080843        1.2075405744       -1.1459417366
 H         -3.1815008765        1.5546927890       -4.4048536104
 H         -3.6321809763        0.2905533102       -5.5522491622
 H         -4.5640909262        2.5096455028        4.2899682977
 H         -4.1455879702        4.1218421096        4.8771046846
 H         -5.3255701723        4.5125962211        0.9412880582
 H         -5.7814183039        2.9106940636        0.3600126413
 H          6.3941863525       -1.1326048885       -1.6403991643
 H          6.3976071315       -1.2516978211       -3.4020560527
 H          5.8212766244        2.7164245910       -2.4412178312
 H          5.8223013255        2.8437464911       -0.6817605165
 H         -0.4262930632       -1.6461292065        0.5911245718
 H         -0.6153425453        1.3078466559        3.7079449791
 H          0.2027446097       -0.4698897039       -3.5654419584
 H          0.2731345257        1.1607805410        0.4571219359
 H         -1.8303601184       -5.2596340367        2.3832436251
 H          3.5324304039        1.3465177037        2.6558233855
 H         -4.5260450496       -2.7899391111        0.1437815302
 H          1.0921690244        4.7964470149        1.9315010688
 H         -1.1778989865       -4.1637385619       -1.9312405370
 H         -2.0641737677        4.1248892080       -1.5421034693
 H          2.9898667189       -3.1621243494       -1.7489421281
 H          1.9963909130        3.3878757767       -2.7494995366
 H          0.4435835613       -4.7533502518        2.5206457624
 H          0.7917583632       -0.6262247594        4.2530070710
 H         -1.9046495512       -0.2594756899       -0.7312029138
 H         -1.2507620024        4.7131127587        2.2533657853
 H         -2.7634404144       -2.6657036212       -2.9263431169
 H         -1.9949771322        1.4880881110        1.1263029349
 H          2.5637421261        0.0463376294       -3.6423953497
 H          2.5628733637        0.7577431382       -0.1341921341
 H          3.2882036581       -2.8082674543        1.7671840660
 H          2.0492521239       -2.5279491168        4.5367058931
 H         -3.3195719094        1.1160198703       -1.9231284604
 H         -4.3364383079       -1.1853897661       -3.6583775460
 H         -3.4504522638        4.7872250603        2.5668174684
 H         -4.1058192021        1.8739782272        1.9156159011
 H          4.7928966542        0.6499751077       -3.5502554416
 H          4.8259838977        0.5632931086       -0.4989932189