128
JYKSSIDNHAGOTC-XTVBVBRTSA-N (       -190.33679363)
 C          3.6642606476       -4.8024082037        3.5909071954
 C          3.8169950516       -4.0183924840        4.8911523224
 C         -5.2343575290        1.7388389230       -4.3696322519
 C         -4.9338168487        0.8184977968       -5.5474038755
 C         -5.5841975583        2.5133508301        4.0263053053
 C         -5.9492190589        1.5810970315        2.8750412148
 C          7.5496971442        0.4205782888       -3.3797036445
 C          7.5294911040        1.4312997749       -2.2377549457
 C          2.3042716788       -4.5317760962        2.9579231884
 C          3.6358828437       -2.5268859974        4.6281957859
 C         -5.1598115950        0.9609446949       -3.0615403712
 C         -3.5532374982        0.1942587634       -5.3869652148
 C         -4.1030507227        2.3892915549        4.3675627363
 C         -5.0908507575        1.8800062587        1.6508632874
 C          6.4733799391       -0.6379199318       -3.1688948772
 C          6.1553367711        2.0814556846       -2.1288412880
 C         -1.5274818029       -1.9106722865        0.7306037227
 C          0.8889125856        1.6971924461        3.3323345053
 C          0.5869418563       -1.5849200179       -3.3053664177
 C          0.5881572763        1.4813014903       -0.2417166507
 C         -2.7002411752       -3.2208471970        2.3753977655
 C          3.1447308755        2.3172655913        2.7626194472
 C         -3.9268216599       -2.1017032007        0.6216028560
 C          1.3382605975        3.8877976465        2.4393783816
 C         -0.1788842819       -3.6166852479       -2.2662467625
 C         -1.0487084030        2.9298610147       -1.2557397407
 C          2.1633676994       -3.0181895271       -2.1844759995
 C          1.1872257439        2.8008992336       -2.1647887140
 C         -0.2500515521       -3.0440941277        2.5372417257
 C          2.7095757268        0.0286842356        3.5738062841
 C         -2.7522843700       -0.7054934083       -1.0448517146
 C         -0.9932220217        3.2515978212        2.9102916441
 C         -1.8268378178       -2.1152416946       -3.3340084940
 C         -1.6590546324        1.5968592272        0.7456822357
 C          2.9505728462       -0.9115840508       -3.2392467801
 C          2.8782446293        1.3107228110       -1.1343567788
 C         -1.5021986082       -2.7228893026        1.8631047773
 C          2.2384000774        1.3690863917        3.2386452351
 C         -2.7312851489       -1.5881146918        0.1135551953
 C          0.4302645019        2.9479211861        2.9305232080
 C         -0.4546558934       -2.4511193727       -2.9784676311
 C         -0.7011776171        2.0069509082       -0.2693446463
 C          1.8911943374       -1.8543162275       -2.9082019044
 C          1.5375869763        1.8762367329       -1.1792761393
 C         -3.8890532078       -2.9087894753        1.7400638547
 C          2.6780819725        3.5584903874        2.3727210914
 C          1.1261288299       -3.8786953227       -1.8883738351
 C         -0.0999133996        3.3027341698       -2.1890517530
 C          2.1052826498       -3.0328004835        2.7007981182
 C          2.2469522751       -2.2601841339        4.0414202093
 C         -3.7881420359        0.3178147349       -2.8704029786
 C         -3.4438450328       -0.5987680573       -4.0855514617
 C         -3.2376792796        2.7133545421        3.1531502472
 C         -3.6080725069        1.7481672814        1.9806966371
 C          5.0878710900       -0.0027020866       -3.0674355500
 C          5.0628563581        1.0350382468       -1.9096208562
 Br        -5.5273627077       -3.6063901252        2.4431459464
 Br         3.9198015789        4.8459401400        1.6907620884
 Br         1.4946934951       -5.4859008206       -0.9293514991
 Br        -0.5891775059        4.5429621503       -3.5581560564
 N          0.8658539103       -2.7333090304        2.0337581265
 N          1.8820528450       -0.8964589244        3.8016244440
 N         -3.8126314267       -0.5050546732       -1.7036843153
 N         -1.8581224144        2.4864753866        3.4274391986
 N         -2.0953839965       -1.0131382557       -3.8928508232
 N         -2.8068032981        2.1185388036        0.8581619784
 N          4.1184016843       -1.0112889995       -2.7666327117
 N          3.7844694695        1.6697171134       -1.9369941218
 H          4.4532025366       -4.5114147886        2.8938543276
 H          3.7660022521       -5.8716555474        3.7834174182
 H          4.8042812887       -4.1974849489        5.3211364542
 H          3.0705117694       -4.3557057224        5.6139663508
 H         -4.5088235508        2.5550498268       -4.3514903895
 H         -6.2292748062        2.1738349931       -4.4774001631
 H         -5.6879941191        0.0297305101       -5.5969608759
 H         -4.9705926919        1.3804734206       -6.4820366659
 H         -5.8054552829        3.5450947196        3.7435778489
 H         -6.1814516658        2.2698985757        4.9065390975
 H         -7.0031408525        1.6993841833        2.6184845568
 H         -5.7927563530        0.5456625105        3.1846086852
 H          8.5274715118       -0.0607275812       -3.4372347579
 H          7.3717294324        0.9368288746       -4.3256755261
 H          8.2825332267        2.2028929888       -2.4060945678
 H          7.7690205920        0.9257200268       -1.2994241801
 H          2.2151619479       -5.0646461821        2.0098012078
 H          1.5147527315       -4.8908646789        3.6208064190
 H          3.7455842872       -1.9569753853        5.5543830520
 H          4.4056589571       -2.1965108277        3.9274551522
 H         -5.9122163564        0.1704947654       -3.0490765034
 H         -5.3496253101        1.6214624657       -2.2137152916
 H         -2.7882687230        0.9726145824       -5.3763494200
 H         -3.3382938997       -0.4780276362       -6.2202425895
 H         -3.8719198114        1.3749693119        4.6967254125
 H         -3.8399570149        3.0744798397        5.1760349881
 H         -5.2780579020        2.8944068734        1.2948008752
 H         -5.3253344068        1.1881445457        0.8397481310
 H          6.6650288001       -1.1944962539       -2.2499505671
 H          6.4695319477       -1.3486800854       -3.9976694497
 H          5.9237987808        2.6306146537       -3.0427831921
 H          6.1329940253        2.7897566220       -1.2982845351
 H         -0.5921130212       -1.5375700174        0.3435915308
 H          0.1901051105        0.9652415787        3.7020341404
 H          0.3502731900       -0.6932794447       -3.8644611158
 H          0.8539668221        0.7657206540        0.5233542050
 H         -2.7000471882       -3.8466735387        3.2550302088
 H          4.1953783670        2.0811179341        2.6834824267
 H         -4.8528908854       -1.8470355601        0.1322342280
 H          0.9962459984        4.8582754737        2.1127775917
 H         -0.9732456342       -4.3015193578       -2.0097887560
 H         -2.0508461372        3.3279387336       -1.2692668057
 H          3.1771279679       -3.2220101416       -1.8796302931
 H          1.9292436431        3.1012807137       -2.8869776335
 H         -0.3645842059       -3.5630338576        3.4963695980
 H          3.7984995468       -0.0974905978        3.5759934676
 H         -1.7992370773       -0.2182429170       -1.2914165086
 H         -1.2748292176        4.1734865001        2.3790029861
 H         -2.5979289594       -2.8535704228       -3.0711423512
 H         -1.3131562816        0.8005121781        1.4190253551
 H          2.6623854720       -0.1013883887       -3.9238389316
 H          3.0471715095        0.5551995683       -0.3518261969
 H          2.8929847930       -2.6724121375        2.0243911057
 H          1.4824247952       -2.6435094354        4.7301908923
 H         -2.9966293124        1.0824810109       -2.8139704457
 H         -4.1521866040       -1.4450310519       -4.0746766073
 H         -3.4269275952        3.7435861134        2.8031453237
 H         -3.3732208284        0.7260928441        2.3233839171
 H          4.8383457657        0.5403567481       -3.9946392535
 H          5.2292068150        0.4843663591       -0.9669166586