128
JYKSSIDNHAGOTC-XTVBVBRTSA-N (       -190.33951133)
 C          3.4292235427       -5.6757369468        3.0659034352
 C          4.1201299156       -4.8607123975        4.1534637076
 C         -5.4008196335        1.4263516305       -4.1101303493
 C         -5.0713101279        0.4974027155       -5.2742673145
 C         -5.8860218479        3.2407532260        3.5112236243
 C         -6.3592522422        2.4319279195        2.3083313560
 C          7.5764945720        1.1992268348       -3.0657426998
 C          7.3185740159        2.1992365801       -1.9434939293
 C          1.9710454051       -5.2553277771        2.9345771629
 C          4.0234482559       -3.3735857393        3.8359666889
 C         -5.1396250783        0.7262059240       -2.7801278971
 C         -3.6197454107        0.0379520975       -5.1966104688
 C         -4.4650797932        2.8416153658        3.8915517957
 C         -5.4139077735        2.6309600521        1.1292934586
 C          6.6067119059        0.0279049828       -2.9630282939
 C          5.8785069949        2.6941871452       -1.9944556872
 C         -2.0440457277       -1.7683138552        0.5984033986
 C          0.2733293883        1.2338370850        3.2409006451
 C          0.8067353184       -1.4051781304       -3.3317962378
 C          0.2488066411        1.6713968630       -0.6271876467
 C         -2.2646267604       -2.7097558750        2.8032164008
 C          2.6126627874        1.2320692510        2.6734224632
 C         -4.1767913197       -1.7099571302        1.7156853426
 C          1.2570947610        3.1816584180        2.2207990241
 C          0.2006359796       -3.5102017108       -2.3316848237
 C         -1.3346086321        3.0957138702       -1.7516938443
 C          2.5100545352       -2.7936656765       -2.3452644609
 C          0.9450863225        2.9609222094       -2.5381494329
 C         -0.0666051966       -2.7951969729        1.6676356842
 C          1.5955969912       -0.8024576993        3.6627463513
 C         -3.9809062877       -0.7195075710       -0.5404413610
 C         -1.1764649079        3.1381275020        2.6285946839
 C         -1.5757763138       -2.0538086643       -3.2382613786
 C         -2.0449202865        1.8457706816        0.2610447095
 C          3.1282621838       -0.5974670553       -3.3194368010
 C          2.6160520416        1.5880760247       -1.3392484102
 C         -1.4748258245       -2.4190384412        1.6866747180
 C          1.4962860892        0.5763823539        3.1980890741
 C         -3.3928280799       -1.4122782856        0.6031663039
 C          0.1384144893        2.5234067163        2.7291012741
 C         -0.1708939089       -2.3339758251       -2.9817349884
 C         -1.0372229048        2.1956087835       -0.7290296661
 C          2.1402392418       -1.6208818294       -3.0083791114
 C          1.2508702642        2.0695706543       -1.5080455007
 C         -3.5953725404       -2.3465950614        2.7990573490
 C          2.4762866710        2.5272842493        2.2149900535
 C          1.5356092184       -3.7194760682       -2.0317255752
 C         -0.3438019074        3.4434481702       -2.6499757197
 C          1.8483827060       -3.7636787809        2.6121123174
 C          2.5683957346       -2.9273233272        3.7016095439
 C         -3.6767808130        0.2938858503       -2.6887399822
 C         -3.3330725832       -0.6591651949       -3.8673135930
 C         -3.5025577031        3.0511833369        2.7245654974
 C         -3.9863532574        2.2281777415        1.4884149937
 C          5.1569355991        0.5036799315       -3.0177879219
 C          4.8908430669        1.5329903062       -1.8814193598
 Br        -4.6754869757       -2.7263725074        4.3334589666
 Br         4.0084579455        3.4403039873        1.5336514512
 Br         2.0373109431       -5.3363083055       -1.1393799294
 Br        -0.7720418233        4.6369378339       -4.0791554320
 N          0.4660665049       -3.4075487197        2.6335758288
 N          2.5399823398       -1.5539745851        3.2933866577
 N         -3.2401874438       -0.3538596804       -1.4928843427
 N         -2.2121573514        2.5451378020        3.0486201636
 N         -1.9425400160       -0.9689784049       -3.7680161157
 N         -3.1062082495        2.5212528802        0.4009737286
 N          4.2775043565       -0.6008749015       -2.7942069246
 N          3.5637421636        2.0288518572       -2.0483701369
 H          3.9370747715       -5.5216894501        2.1118216496
 H          3.4768529367       -6.7394107249        3.3040472527
 H          5.1697513449       -5.1493350285        4.2291174334
 H          3.6448324614       -5.0598522257        5.1166682407
 H         -4.7830717607        2.3242493559       -4.1750503694
 H         -6.4474248137        1.7327565781       -4.1619560050
 H         -5.7312788709       -0.3733402293       -5.2445219960
 H         -5.2389172353        1.0131564771       -6.2209952433
 H         -5.9122558588        4.3052934618        3.2680399636
 H         -6.5502580974        3.0716948268        4.3602621706
 H         -7.3668802758        2.7390856086        2.0230494518
 H         -6.3919015943        1.3735238642        2.5763697171
 H          8.6015822190        0.8289149764       -3.0102779555
 H          7.4484028128        1.6941622522       -4.0311068802
 H          7.9965238967        3.0492963108       -2.0345050056
 H          7.5036348540        1.7228055786       -0.9783972966
 H          1.4854689652       -5.8220490878        2.1379583480
 H          1.4357487617       -5.4489278981        3.8656134061
 H          4.4968844019       -2.7827140373        4.6226799052
 H          4.5351004390       -3.1558309997        2.8969911863
 H         -5.7881498286       -0.1502398564       -2.6964962357
 H         -5.3594800604        1.4030961395       -1.9509737503
 H         -2.9476433179        0.8925138446       -5.2864582104
 H         -3.3957999877       -0.6545039206       -6.0106132078
 H         -4.4313223082        1.7898981379        4.1815019884
 H         -4.1166708065        3.4349844714        4.7392815383
 H         -5.4084685347        3.6773857471        0.8200890553
 H         -5.7390281367        2.0320600965        0.2764005387
 H          6.7572916160       -0.5047886832       -2.0226211430
 H          6.7721395962       -0.6774589232       -3.7799838065
 H          5.6895793736        3.2143844659       -2.9347338461
 H          5.6865162749        3.3915021499       -1.1770053331
 H         -1.4581481909       -1.5266302977       -0.2758154352
 H         -0.6035252235        0.7487143104        3.6401197466
 H          0.4955442130       -0.5042651648       -3.8358158017
 H          0.4771806574        0.9724703626        0.1648814117
 H         -1.8146119223       -3.2145802384        3.6426609724
 H          3.5580406493        0.7143965963        2.6421389950
 H         -5.2228564918       -1.4434564455        1.7345823119
 H          1.1706152666        4.1844462037        1.8304208641
 H         -0.5437378495       -4.2434137334       -2.0584633875
 H         -2.3299904423        3.5051931714       -1.8149729751
 H          3.5467762676       -2.9496038976       -2.0934929360
 H          1.7268157237        3.2584335564       -3.2183888696
 H          0.4910256099       -2.5194856630        0.7589025296
 H          0.7864686808       -1.1447374139        4.3223089004
 H         -5.0615161473       -0.5454717174       -0.4856739037
 H         -1.2193131278        4.1152055862        2.1260423568
 H         -2.2906999191       -2.8230407020       -2.9094678954
 H         -1.8088937404        0.9793971658        0.8932346846
 H          2.7965088112        0.1877737247       -4.0124312954
 H          2.7681801099        0.8495553264       -0.5369804207
 H          2.3197232074       -3.5396454786        1.6393406391
 H          2.0196652207       -3.0831621254        4.6450370734
 H         -3.0228751754        1.1692149832       -2.7893905207
 H         -3.9635502918       -1.5624111323       -3.7594058017
 H         -3.4727788658        4.1131843124        2.4244432755
 H         -3.9353972022        1.1651080235        1.7763330626
 H          4.9447590359        1.0118955974       -3.9731446706
 H          5.0161578146        1.0058239910       -0.9201867110