128
JYKSSIDNHAGOTC-XTVBVBRTSA-N (       -190.33444536)
 C          1.7117278149       -6.9825835496        3.8548486142
 C          2.5417517287       -6.2856035730        4.9277959560
 C         -5.8134059093       -1.1760768395       -5.1101609260
 C         -4.9398497738       -1.9122383566       -6.1221333280
 C         -5.0839557645        3.6865178034        4.1671342478
 C         -5.8084298532        3.1022493579        2.9605471070
 C          7.2657114424        2.3355634643       -4.2487681654
 C          7.1223234640        3.3763915277       -3.1439657022
 C          0.4320187490       -6.2011938408        3.5816595172
 C          2.8685567307       -4.8593717340        4.5004037686
 C         -5.4524675918       -1.5857368749       -3.6861283923
 C         -3.4617424387       -1.6599369957       -5.8424970566
 C         -3.7371933876        2.9985648803        4.3456658451
 C         -4.9655422023        3.2919636884        1.7058778255
 C          6.4314791185        1.1038867473       -3.9201094624
 C          5.6586339173        3.7625566422       -2.9737828283
 C         -2.3256912792       -2.2601127796        0.4314161753
 C          0.3793281635        0.4801987590        3.4572274559
 C          1.0055673252       -1.2808650990       -3.5125681821
 C          0.3174524711        2.2682359872       -0.8856732559
 C         -2.7106409945       -2.3152848035        2.8067334909
 C          2.6236567458       -0.1319408559        2.8410168167
 C         -4.2004800575       -1.0723968773        1.3660276338
 C          1.7837179110        2.0818084473        2.3356362138
 C          0.8975762889       -3.2256488973       -2.0957757827
 C         -1.4107071743        3.7813972258       -1.6132490967
 C          2.9193406443       -1.9089992198       -2.1883075276
 C          0.7636554041        3.8384709196       -2.6587212901
 C         -0.7401987981       -3.4879917519        1.8767378368
 C          1.1659369839       -1.7896594151        3.9790460629
 C         -3.8467512066       -1.0221345670       -1.0793548351
 C         -0.5630960289        2.6816240516        2.8614409642
 C         -1.0868673858       -2.6145362587       -3.4123888940
 C         -1.8693347397        2.2645253963        0.2790862341
 C          3.0674339019        0.0754078044       -3.6519585189
 C          2.6004865212        2.4103653398       -1.8350695836
 C         -1.9428671919       -2.6842137000        1.6998894779
 C          1.3991107707       -0.4624306933        3.4260935985
 C         -3.4527294423       -1.4609978902        0.2566288479
 C          0.5535259734        1.7450236937        2.8984116071
 C          0.2889756534       -2.3646929878       -3.0083697032
 C         -0.9808612091        2.7564896099       -0.7704296186
 C          2.3178254691       -1.0528437512       -3.1154188040
 C          1.2044302623        2.8275026324       -1.8026108924
 C         -3.8213432517       -1.5184319097        2.6203665468
 C          2.7951665415        1.1357717707        2.3220653203
 C          2.1985756309       -2.9764634161       -1.6961444144
 C         -0.5373527193        4.2878107676       -2.5566466133
 C          0.7541661109       -4.7737437940        3.1327960442
 C          1.5941693598       -4.0647414273        4.2259703524
 C         -3.9714224311       -1.3018714300       -3.4078448116
 C         -3.1088449005       -2.0864260380       -4.4191144378
 C         -2.8532703813        3.1486141460        3.1073197219
 C         -3.5943150942        2.6308678686        1.8369006759
 C          4.9550973834        1.4567647215       -3.7423805012
 C          4.7943982945        2.5459635501       -2.6434779175
 Br        -4.8650603917       -1.0031271500        4.1344322293
 Br         4.4810966995        1.5988805233        1.5451602756
 Br         3.0135502024       -4.1517763074       -0.4273561636
 Br        -1.1411301739        5.6688766423       -3.7323903603
 N         -0.4610476462       -4.0378031971        2.9778314755
 N          1.9344880489       -2.7613010404        3.7378413859
 N         -3.5981448430       -1.7336608432       -2.0895792703
 N         -1.7069147519        2.3167405913        3.2552796308
 N         -1.7332137462       -1.8059635876       -4.1357512069
 N         -2.7953503690        3.0046857052        0.7142143124
 N          4.2533535906        0.3038214249       -3.2818112964
 N          3.4241954474        2.9495120668       -2.6269745967
 H          2.2947648419       -7.0544557870        2.9340857748
 H          1.4571336038       -7.9942484308        4.1757431650
 H          3.4682731153       -6.8358702418        5.0991818498
 H          1.9822777998       -6.2658691303        5.8660484149
 H         -5.6713208334       -0.0989157824       -5.2232046453
 H         -6.8659172108       -1.3988890671       -5.2949139765
 H         -5.1409669250       -2.9844649567       -6.0630838267
 H         -5.1828017700       -1.5799311207       -7.1327392949
 H         -4.9340443208        4.7587363585        4.0216610495
 H         -5.6820913963        3.5458219064        5.0685011837
 H         -6.7743290001        3.5918733654        2.8266481566
 H         -5.9879600931        2.0386704163        3.1301958738
 H          8.3121020055        2.0460667892       -4.3591709712
 H          6.9310418683        2.7614435452       -5.1974929219
 H          7.7070554924        4.2653427851       -3.3865013724
 H          7.5011385143        2.9672081021       -2.2048708043
 H         -0.1525832692       -6.6892656940        2.7988020145
 H         -0.1830001538       -6.1521942920        4.4820042363
 H          3.4386353239       -4.3488901317        5.2789909325
 H          3.4704144853       -4.8661786183        3.5904390336
 H         -5.6383342582       -2.6521743650       -3.5407094610
 H         -6.0613875817       -1.0355551969       -2.9648960693
 H         -3.2281483719       -0.5999392848       -5.9560757588
 H         -2.8407723097       -2.2181709021       -6.5456052183
 H         -3.8863422148        1.9343244970        4.5313629465
 H         -3.2032108448        3.4175196929        5.2009326792
 H         -4.8086636436        4.3554531146        1.5173462094
 H         -5.4730769691        2.8710631638        0.8354034749
 H          6.7840560997        0.6479915201       -2.9935203081
 H          6.5163874398        0.3609235824       -4.7159512212
 H          5.2777740515        4.2134393968       -3.8918053504
 H          5.5480110877        4.4911329432       -2.1684391511
 H         -1.7539428760       -2.5362939722       -0.4408336648
 H         -0.5762006809        0.2476112030        3.8996709173
 H          0.5172273428       -0.6285776970       -4.2193323762
 H          0.6499890340        1.4758473840       -0.2295634428
 H         -2.4158094213       -2.6599795251        3.7845924195
 H          3.4077881420       -0.8715312323        2.8127079660
 H         -5.0779836662       -0.4554124968        1.2438301676
 H          1.9406445373        3.0613399325        1.9087722985
 H          0.3585603100       -4.0769536124       -1.7064119511
 H         -2.4140745197        4.1611033936       -1.5074515982
 H          3.9358992138       -1.7160754920       -1.8848725336
 H          1.4582272025        4.2555300336       -3.3698513363
 H         -0.0916026006       -3.5788686769        0.9937201904
 H          0.2621926843       -1.8908159577        4.5956223094
 H         -4.3670686145       -0.0552337766       -1.1376674190
 H         -0.3583615475        3.6841831474        2.4590344909
 H         -1.5332625664       -3.5469114788       -3.0387441348
 H         -1.6626796450        1.2575332904        0.6712464442
 H          2.5426571822        0.6966827441       -4.3912749161
 H          2.8938171935        1.6463332838       -1.1030739650
 H          1.3464584664       -4.7935740715        2.2020878100
 H          0.9655670821       -4.0058253791        5.1302614786
 H         -3.7840146316       -0.2241203675       -3.5338112017
 H         -3.3344933724       -3.1571648454       -4.2722966815
 H         -2.5913888664        4.2065519911        2.9319207809
 H         -3.6815977605        1.5374365588        1.9426887652
 H          4.5284800235        1.8610861992       -4.6764864622
 H          5.1026027093        2.0928208193       -1.6872770400