128
JYKSSIDNHAGOTC-XTVBVBRTSA-N (       -190.33387471)
 C          2.6760149584       -4.7975552142        6.0149977567
 C          2.5381702967       -3.6360856904        6.9930861657
 C         -6.3564594077        1.2368849126       -3.5508236894
 C         -5.7531519102        0.8597435820       -4.9003924224
 C         -5.3388446441        3.6456319782        4.1886226631
 C         -5.9357900914        2.9130236609        2.9914158434
 C          7.2779356707        1.0050991707       -3.7733754685
 C          7.3291679407        1.9613529349       -2.5864741285
 C          1.5305869155       -4.7733275370        5.0114615370
 C          2.5150977024       -2.3161535010        6.2335574015
 C         -6.0570038622        0.1613864467       -2.5124987177
 C         -4.2503958216        0.6354480638       -4.7708679082
 C         -3.9069242023        3.1846455464        4.4348409320
 C         -5.0813686598        3.1398306686        1.7496938971
 C          6.1876704869       -0.0389668361       -3.5640751123
 C          5.9780626596        2.6391571481       -2.3955770114
 C         -1.9218265779       -1.8753953976        1.1961728578
 C          0.7726521317        1.5464954262        3.4746890895
 C          0.3005856284       -1.0132889133       -3.3096326536
 C          0.4057215830        2.0786760646       -0.4589256237
 C         -1.8635743325       -4.2285401483        1.6958025932
 C          3.0730470669        1.5391469500        2.7667123075
 C         -3.3622672067       -3.3854990455       -0.0027435682
 C          1.6569204427        3.4331478747        2.2670091928
 C         -0.2891732970       -3.1103305442       -2.2788474711
 C         -1.1198563610        3.7472881231       -1.2939993611
 C          2.0143649473       -2.3926366464       -2.3252238150
 C          1.0985767251        3.5571858409       -2.2292345803
 C         -0.3832940177       -2.6852550104        2.9513799621
 C          2.1970096868       -0.4101589554        4.0084021464
 C         -3.3312295204       -0.9902001494       -0.6254903692
 C         -0.7244734389        3.4345249284        2.9015654825
 C         -2.0785615685       -1.7279211411       -3.2346339010
 C         -1.8064694421        2.3088289482        0.5989308843
 C          2.6553582325       -0.2669811682       -3.4092070880
 C          2.6972524026        1.8844039254       -1.3604964410
 C         -1.4069773336       -2.9334900608        1.9375569363
 C          2.0073052097        0.9050313174        3.4089256783
 C         -2.8820650411       -2.0922643705        0.2115819064
 C          0.5869419958        2.8015532590        2.9037967376
 C         -0.6686525728       -1.9450669504       -2.9444809843
 C         -0.8386751075        2.7019347281       -0.4140994506
 C          1.6409658565       -1.2347471448       -3.0124133760
 C          1.3825901258        2.5099871040       -1.3511936108
 C         -2.8430579551       -4.4277787430        0.7405537115
 C          2.8797522265        2.7913143115        2.2137512663
 C          1.0445216654       -3.3072674660       -1.9697262416
 C         -0.1492487072        4.1483443512       -2.1918882891
 C          1.4721296293       -3.4466500784        4.2403809791
 C          1.3462747718       -2.2625672254        5.2381009380
 C         -4.5502936073       -0.0416367425       -2.3632719048
 C         -3.9491029530       -0.4494218872       -3.7403120343
 C         -3.0333207386        3.4194077755        3.2048254877
 C         -3.6466997790        2.6718437416        1.9752930986
 C          4.8201659248        0.6144098426       -3.3720021251
 C          4.8685012582        1.6118435092       -2.1779764085
 Br        -3.4862746705       -6.2030743717        0.4235175514
 Br         4.3476066938        3.6623676414        1.3471230900
 Br         1.5556920519       -4.8945364322       -1.0342838805
 Br        -0.5400301696        5.5737444151       -3.4043546901
 N          0.4346115243       -3.5872072078        3.2704954957
 N          1.2335046464       -0.9829807156        4.5968792343
 N         -4.2752192821       -1.1086144378       -1.4572030901
 N         -1.7370910017        2.8654407717        3.4038512158
 N         -2.5342909782       -0.5995045872       -3.5781785600
 N         -2.8384074513        2.9982524437        0.8461766708
 N          3.8585771194       -0.3883746467       -3.0411904462
 N          3.6088447840        2.2778883812       -2.1404298132
 H          3.6286494976       -4.7200145044        5.4858597893
 H          2.6677340852       -5.7461227798        6.5541951134
 H          3.3718292815       -3.6348546667        7.6979221215
 H          1.6138957989       -3.7451240240        7.5646226495
 H         -5.9363423583        2.1886460684       -3.2174698159
 H         -7.4366420555        1.3596857179       -3.6458873686
 H         -6.2254112286       -0.0545377997       -5.2669687039
 H         -5.9415654076        1.6511188826       -5.6277112834
 H         -5.3467762655        4.7212264300        3.9980990256
 H         -5.9392691367        3.4570522298        5.0800983784
 H         -6.9507305769        3.2672936166        2.8039323937
 H         -5.9863664842        1.8430925058        3.2066935238
 H          8.2405295501        0.5054895847       -3.8949562710
 H          7.0723351111        1.5685316275       -4.6862244423
 H          8.0956735860        2.7207719734       -2.7483369841
 H          7.5892286702        1.4076265501       -1.6816214578
 H          1.6366504108       -5.5799608529        4.2853664244
 H          0.5800611910       -4.9110176292        5.5315381496
 H          2.4137329077       -1.4773563736        6.9268807179
 H          3.4574023931       -2.1955639038        5.6949016372
 H         -6.5067462323       -0.7879226391       -2.8078145441
 H         -6.4714249920        0.4416560022       -1.5421015749
 H         -3.7540388001        1.5561907523       -4.4593132137
 H         -3.8263232797        0.3331127812       -5.7303387191
 H         -3.8867304576        2.1199663454        4.6732366151
 H         -3.4717190984        3.7266053764        5.2769001277
 H         -5.0611052894        4.1999311827        1.4917644946
 H         -5.4950398409        2.5945914968        0.8993855371
 H          6.4061368074       -0.6400012101       -2.6797750697
 H          6.1326853613       -0.7114947540       -4.4224686726
 H          5.7256344206        3.2336651270       -3.2748480707
 H          6.0031357572        3.3069698893       -1.5323084299
 H         -1.5562007779       -0.8747919682        1.3756085269
 H         -0.0511278810        1.0659487609        3.9760160871
 H         -0.0133337656       -0.1219153744       -3.8299414303
 H          0.6233972920        1.2657379278        0.2198168571
 H         -1.4437204621       -5.0477962159        2.2565648194
 H          4.0388597312        1.0600613003        2.7060762681
 H         -4.1223710171       -3.5435397449       -0.7507791151
 H          1.5294152874        4.4076631185        1.8203780209
 H         -1.0311102946       -3.8426953033       -1.9995624415
 H         -2.0860869336        4.2235668445       -1.2489764261
 H          3.0562916794       -2.5499800841       -2.0973842111
 H          1.8650161016        3.8842395290       -2.9131908638
 H         -0.3629784200       -1.6737422323        3.3783625553
 H          3.2029189932       -0.8354414024        3.9076270930
 H         -2.7762434324       -0.0459868431       -0.5101924798
 H         -0.7840366451        4.4190108448        2.4142940164
 H         -2.7257066760       -2.6090263775       -3.1207800302
 H         -1.5616918705        1.3951287000        1.1605300129
 H          2.3091287127        0.5585801568       -4.0460354685
 H          2.8457946280        1.0677917063       -0.6369856027
 H          2.4058623946       -3.3303859495        3.6718527526
 H          0.4011045519       -2.3953270649        5.7839090077
 H         -4.0595337027        0.8974973800       -2.0502503113
 H         -4.4247110775       -1.4020771837       -4.0271563280
 H         -2.9943388966        4.4924854465        2.9485505977
 H         -3.6161344349        1.5942874986        2.2091202758
 H          4.5283662614        1.1901614282       -4.2661855182
 H          5.0529980348        1.0225541396       -1.2632924602