128
JYKSSIDNHAGOTC-XTVBVBRTSA-N (       -190.33443852)
 C          3.9046577000       -4.6065289755        1.2015998306
 C          4.5970347149       -3.9991969673        2.4171964823
 C         -5.0527022727        1.6338041761       -3.9749206493
 C         -4.8342301116        0.6905935644       -5.1540185554
 C         -6.0548322337        3.2415650198        3.7940102965
 C         -6.5028613450        2.3446396514        2.6439269258
 C          7.5981461425        0.2457772822       -1.5808564115
 C          7.1945513069        1.1230032133       -0.4007899886
 C          2.4179065193       -4.2757424010        1.2210841572
 C          4.3783132002       -2.4910674354        2.4510204189
 C         -4.8490999428        0.8911093579       -2.6580279486
 C         -3.4374737895        0.0814411116       -5.1020880724
 C         -4.6046067505        2.9527245399        4.1676891905
 C         -5.5873653548        2.5207351171        1.4365591628
 C          6.5621008690       -0.8504670072       -1.7984104595
 C          5.8189324790        1.7314537871       -0.6421990713
 C         -1.9450284322       -1.7609757695        0.7750130103
 C          0.3161061492        1.7735667128        3.1643514008
 C          0.8202052426       -1.7987532099       -3.1694596480
 C          0.0672719796        1.2723174528       -0.1440856114
 C         -2.2921624979       -2.6538029266        2.9848562004
 C          2.5713278005        2.1152772918        2.3888161654
 C         -4.1445328049       -1.7088166633        1.7564911136
 C          0.9678099849        3.9176547676        2.2843083954
 C          0.0616122580       -4.0643173848       -2.8755263792
 C         -1.2405690959        2.9192371711       -1.3163596009
 C          2.3940555496       -3.5135984260       -2.5538394767
 C          1.0615038475        2.5222550114       -1.9436495922
 C         -0.0255165965       -2.7307943727        2.0250179058
 C          1.8548338235       -0.1446961114        3.1050103580
 C         -3.8207613740       -0.7301276370       -0.4842150766
 C         -1.4017812994        3.5186593897        2.8152952034
 C         -1.5881786258       -2.2938918053       -3.3794357386
 C         -2.2033721314        1.7367020233        0.6443389392
 C          3.1668415065       -1.1678857917       -2.8074001488
 C          2.4486950825        0.9219532334       -0.6402371125
 C         -1.4367298970       -2.3760079858        1.9154947545
 C          1.5910812809        1.2774027065        2.9225176515
 C         -3.2934314782       -1.4215990891        0.6893940992
 C         -0.0159537438        3.0787500867        2.8064674732
 C         -0.2170537514       -2.7279639341       -3.1571031999
 C         -1.1294205320        1.9655401053       -0.3048479845
 C          2.1176107644       -2.1781556775       -2.8519098622
 C          1.1754003708        1.5679324669       -0.9315047241
 C         -3.6278701156       -2.3141802458        2.8870694012
 C          2.2485076013        3.4271664725        2.1061039356
 C          1.3646852136       -4.4320949400       -2.5936354978
 C         -0.1497264960        3.1605928834       -2.1302659534
 C          2.2013117369       -2.7584226659        1.2224586953
 C          2.8884725380       -2.1484906980        2.4727030574
 C         -3.4348390690        0.3145279323       -2.5966788511
 C         -3.2068346083       -0.6589819717       -3.7832966853
 C         -3.6889459755        3.1578469984        2.9634752270
 C         -4.1410291534        2.2118519137        1.8078638472
 C          5.1731442449       -0.2632526845       -2.0419481453
 C          4.7577109590        0.6502761460       -0.8576093434
 Br        -4.7965839322       -2.6795580061        4.3615849174
 Br         3.5898432431        4.5847546463        1.4008833890
 Br         1.7442801088       -6.2758718091       -2.2365948294
 Br        -0.3201194982        4.4383858211       -3.5417202079
 N          0.8083497670       -2.4043394043        1.1339814314
 N          2.7301834848       -0.7300492273        2.4101519922
 N         -3.0395302188       -0.3663951186       -1.4038328635
 N         -2.3412949748        2.8000410923        3.2644396599
 N         -1.8541019096       -1.1052814786       -3.7058480303
 N         -3.2638858025        2.4263563946        0.6948565897
 N          4.2197206542       -1.3301198551       -2.1290851768
 N          3.5229694343        1.2839509509       -1.1994318564
 H          4.3507193841       -4.2044687060        0.2906328912
 H          4.0353508849       -5.6900324542        1.1950129627
 H          5.6669416344       -4.2103916209        2.3829638419
 H          4.1962675068       -4.4474923964        3.3300419967
 H         -4.3463810993        2.4638267963       -4.0373923121
 H         -6.0626477828        2.0469420176       -4.0103424613
 H         -5.5808507392       -0.1072177710       -5.1260580541
 H         -4.9581168755        1.2328586030       -6.0927268825
 H         -6.1499424686        4.2884992017        3.4971932142
 H         -6.6936368797        3.0783130935        4.6635704482
 H         -7.5294944551        2.5849160522        2.3622098633
 H         -6.4781045070        1.3023900979        2.9705239507
 H          8.5747051017       -0.2058372577       -1.3972555607
 H          7.6744161197        0.8596878773       -2.4810904597
 H          7.9232745925        1.9231067682       -0.2597844854
 H          7.1732244560        0.5215266433        0.5109158284
 H          1.9200606588       -4.6958990053        0.3466516438
 H          1.9538180616       -4.7103200367        2.1099377982
 H          4.8527941249       -2.0548428905        3.3328855262
 H          4.8171602944       -2.0293637991        1.5654135155
 H         -5.5830814868        0.0842595661       -2.5823806844
 H         -4.9867226450        1.5698087069       -1.8125472897
 H         -2.6810672695        0.8623104532       -5.1919053991
 H         -3.2979394743       -0.6205514527       -5.9269405605
 H         -4.4988173930        1.9239871545        4.5166475565
 H         -4.2799727174        3.6160655381        4.9720012580
 H         -5.6411735016        3.5448585504        1.0639824568
 H         -5.8919614317        1.8539338202        0.6274857628
 H          6.5126204883       -1.4980901330       -0.9216273058
 H          6.8339668146       -1.4679004710       -2.6568872729
 H          5.8393511326        2.3713391080       -1.5258612362
 H          5.5227485964        2.3499116187        0.2066241576
 H         -1.2916524491       -1.5368552595       -0.0520609530
 H         -0.4572019122        1.1430704755        3.5747979867
 H          0.5815056988       -0.7721789965       -3.3963317963
 H          0.1498526979        0.5129356248        0.6187966445
 H         -1.9153284530       -3.1256071372        3.8801468709
 H          3.5571330112        1.7227055760        2.2002231294
 H         -5.1924845374       -1.4546560494        1.7034929441
 H          0.7279490680        4.9337359556        2.0095510591
 H         -0.7279763060       -4.8008743831       -2.8774275448
 H         -2.1689718932        3.4546566066       -1.4348363804
 H          3.4028452157       -3.8027089669       -2.3078333974
 H          1.9227625818        2.7495208980       -2.5514685246
 H          0.2368512360       -3.2901658416        2.9341022476
 H          1.2019968466       -0.6741772140        3.8149790611
 H         -4.9008867017       -0.5423314246       -0.4724785220
 H         -1.5943799415        4.4848684222        2.3258531766
 H         -2.3704050749       -3.0500162020       -3.2095423586
 H         -2.0042152025        0.9365227591        1.3704416998
 H          2.9672127631       -0.2518945361       -3.3794758164
 H          2.4186508690        0.1443482333        0.1344450875
 H          2.6717810127       -2.3247912225        0.3307450052
 H          2.4097275224       -2.5718644471        3.3748954419
 H         -2.7016994205        1.1225763211       -2.7097726253
 H         -3.9249148992       -1.4964132163       -3.6823719416
 H         -3.7646251783        4.1958589258        2.5935670938
 H         -4.0504007918        1.1807152189        2.1904746857
 H          5.1668827840        0.3627059147       -2.9491756966
 H          4.6542787136        0.0168536713        0.0407171723