128
JYKSSIDNHAGOTC-XTVBVBRTSA-N (       -190.33700300)
 C          5.0399031921       -4.0662394438        5.0758509582
 C          5.1368190104       -2.9850902974        6.1471047023
 C         -4.7699511074        2.2449083209       -3.2970143387
 C         -4.9053377785        1.3975710366       -4.5582138581
 C         -5.9521546257        3.4139358178        4.4196240220
 C         -6.4374055716        2.5438080792        3.2645853466
 C          6.4581588349       -0.3760763466       -1.6591195113
 C          6.1156328424       -0.0426812057       -0.2115956373
 C          3.6372627534       -4.0971915247        4.4801461231
 C          4.7755791336       -1.6253929244        5.5609572139
 C         -4.4643712033        1.3600112290       -2.0943743937
 C         -3.6373964720        0.5848416040       -4.7961650620
 C         -4.4851963101        3.1287933489        4.7209648167
 C         -5.5831902506        2.7787249850        2.0240387313
 C          5.3534097642       -1.2270421068       -2.2772101025
 C          4.7835758791        0.6919658655       -0.1386213198
 C         -0.1213219412       -1.4916415472        0.7210613696
 C          0.3732361401        1.9352683625        3.8361012591
 C          0.4388003997       -2.2825580002       -3.6791367701
 C         -0.0503930993        1.9613866221       -0.1473148258
 C         -0.8291677140       -2.7568572993        2.6486574267
 C          2.6161283934        2.0519701579        2.9665310682
 C         -2.4630898247       -1.9560585457        1.0592877612
 C          0.9948850272        3.7359416432        2.3618386401
 C         -0.6931896435       -4.2238974437       -4.5435253949
 C         -1.6447550736        3.5481511919       -1.0112019348
 C          1.7016427075       -4.2578799882       -4.2208333852
 C          0.4858641842        3.2457251858       -2.1107324458
 C          1.5724558598       -2.2290749456        2.3510660945
 C          1.9845177295        0.1701550124        4.4457807968
 C         -1.7625692682       -0.5679948220       -0.8680610475
 C         -1.3300803860        3.6008820223        3.1473319563
 C         -2.0195071584       -2.2280087745       -3.9429336525
 C         -2.2236769053        2.2018102116        0.9840493197
 C          2.8834974323       -2.3254143236       -3.2467786008
 C          2.1115149535        1.5788657862       -1.3201141980
 C          0.1906022403       -2.1704293241        1.8966773619
 C          1.6561722536        1.4070960717        3.7506406297
 C         -1.4458583386       -1.3683201409        0.3058596107
 C          0.0351749943        3.0981275594        3.1464302174
 C         -0.7385851013       -2.9122465910       -4.0693440520
 C         -1.2946987162        2.5783086593       -0.0699314437
 C          1.6577597748       -2.9511060707       -3.7322332724
 C          0.8392474976        2.2748691148       -1.1730382475
 C         -2.1345464925       -2.6436042188        2.2116519898
 C          2.2662073771        3.1974215427        2.2840168849
 C          0.5282178673       -4.8651186807       -4.6263321276
 C         -0.7469089891        3.8656079224       -2.0106086326
 C          3.2601654626       -2.7422941209        3.8809388617
 C          3.3675342914       -1.6369781792        4.9655375793
 C         -3.1909964084        0.5507105354       -2.3285077333
 C         -3.3342595898       -0.3204110949       -3.5973154486
 C         -3.6147502585        3.3791637828        3.4930120227
 C         -4.1124908571        2.4861662851        2.3059809719
 C          4.0154523329       -0.4827274833       -2.2429698816
 C          3.6524517870       -0.1252481355       -0.7763575364
 Br        -3.5333503573       -3.4402660275        3.2465174036
 Br         3.5580121443        4.0611373185        1.1772265410
 Br         0.5948925747       -6.6574623499       -5.3031651228
 Br        -1.2315897580        5.1843257427       -3.3113742467
 N          1.9009192495       -2.7820273697        3.4382474845
 N          3.1138218038       -0.3829443456        4.3271665986
 N         -2.9521269361       -0.2930180024       -1.1931505210
 N         -2.2683349976        2.9885048665        3.7378809884
 N         -2.0813502617       -0.9771929438       -3.7949839626
 N         -3.3145834651        2.8169174079        1.1715590288
 N          2.8752124003       -1.1433958180       -2.8039054805
 N          2.3978141044        0.5643415807       -0.6227437666
 H          5.7668257052       -3.8625173626        4.2861925654
 H          5.2737205748       -5.0418163029        5.5055289121
 H          6.1493371849       -2.9488138128        6.5528273257
 H          4.4536141902       -3.2216064166        6.9658861280
 H         -3.9626805308        2.9673330034       -3.4321291510
 H         -5.6923103571        2.7999746484       -3.1189847032
 H         -5.7560654165        0.7204340198       -4.4527272619
 H         -5.0892607768        2.0392639125       -5.4216520700
 H         -6.0706664244        4.4677548051        4.1570039471
 H         -6.5505808119        3.2196867585        5.3112696850
 H         -7.4798717439        2.7724082486        3.0369136493
 H         -6.3776919509        1.4916424494        3.5518650406
 H          7.4050547603       -0.9176643191       -1.7047475546
 H          6.5723452607        0.5479780448       -2.2304335057
 H          6.8960168943        0.5830164187        0.2247945017
 H          6.0577201900       -0.9652339227        0.3708896807
 H          3.5713535950       -4.8551654327        3.6967117859
 H          2.9053723366       -4.3464678438        5.2501756002
 H          4.8207808915       -0.8534331857        6.3319330998
 H          5.4796677943       -1.3545469818        4.7723338710
 H         -5.2868437969        0.6644902046       -1.9179172420
 H         -4.3324998376        1.9620614020       -1.1933231662
 H         -2.7856911626        1.2499276281       -4.9500391677
 H         -3.7445486939       -0.0378039762       -5.6873233919
 H         -4.3567935476        2.0899500318        5.0292097359
 H         -4.1319728829        3.7677291960        5.5330356281
 H         -5.6722536678        3.8145062422        1.6921605172
 H         -5.9125597286        2.1328336228        1.2082102727
 H          5.2641995465       -2.1623231978       -1.7177454725
 H          5.6039490826       -1.4667567942       -3.3138875102
 H          4.8584138872        1.6518111017       -0.6544466875
 H          4.5186914237        0.8896951474        0.9009166201
 H          0.6684667645       -1.0342840178        0.1403845587
 H         -0.3887821740        1.4512822564        4.4268688710
 H          0.4054789847       -1.2709069153       -3.3120678987
 H          0.2396325825        1.2263620086        0.5862220550
 H         -0.5756315066       -3.2805786302        3.5563489787
 H          3.6085802763        1.6352122409        2.9140903789
 H         -3.4843037188       -1.8487749341        0.7302868945
 H          0.7437239074        4.6324063454        1.8150553522
 H         -1.5980050248       -4.7272441502       -4.8489674620
 H         -2.6108189949        4.0212572153       -0.9420046640
 H          2.6387234481       -4.7912253131       -4.2770982398
 H          1.1620312599        3.5016379672       -2.9123374199
 H          2.3059530411       -1.7450816806        1.6912745021
 H          1.1840321417       -0.2535035154        5.0684945413
 H         -0.8981585762       -0.1814780378       -1.4223428005
 H         -1.5028195694        4.5218598871        2.5715032452
 H         -2.9159002918       -2.8657001231       -3.9698298152
 H         -1.9208735028        1.3382744452        1.5928543199
 H          3.7739647014       -2.9622800990       -3.2900917138
 H          2.7667471170        1.9868845374       -2.0973018564
 H          3.9505817696       -2.4710627993        3.0632142089
 H          2.6171487712       -1.8619273675        5.7431105944
 H         -2.3335023433        1.2209195137       -2.5050792042
 H         -4.1603954059       -1.0391973079       -3.4519916510
 H         -3.6913774065        4.4298231385        3.1635743043
 H         -3.9716972982        1.4373012585        2.6150393455
 H          4.1172761821        0.4549191941       -2.8045399870
 H          3.5386640771       -1.0707784695       -0.2275919300