128
JYKSSIDNHAGOTC-XTVBVBRTSA-N (       -190.33613465)
 C          2.5570625077       -5.7999247890        3.8649821817
 C          3.2268674183       -4.8956295706        4.8938833038
 C         -5.2886688715        1.1439757741       -4.5720941893
 C         -4.8038038964        0.2082970502       -5.6739002230
 C         -5.2688715075        2.6023897822        4.0192658529
 C         -5.8206835298        1.7648906763        2.8708435650
 C          7.6265012105        1.6229892386       -3.5742615482
 C          7.3902277271        2.6779460132       -2.4981526209
 C          1.1341915207       -5.3294681437        3.5916702804
 C          3.2304204373       -3.4532991520        4.3990165086
 C         -5.1452475271        0.4743069514       -3.2092746225
 C         -3.3491609984       -0.1773859752       -5.4356312643
 C         -3.7880542604        2.3073706886        4.2270807072
 C         -5.0392725678        2.0402716414        1.5916738539
 C          6.7318376457        0.4117502236       -3.3368455205
 C          5.9243100019        3.0934886355       -2.4721362160
 C         -2.4728712165       -1.9148409809        0.5723207343
 C          0.9650286379        1.0330814835        3.0349988227
 C          0.9857399323       -1.2862112899       -3.3350207787
 C          0.4723487231        1.5654844090       -0.7207942279
 C         -2.9692781305       -2.7190289602        2.7870780704
 C          3.2781439304        1.3258984057        2.4374185706
 C         -4.7142986461       -1.7355432280        1.4347537117
 C          1.6959173089        3.1152401879        2.0692614792
 C          0.4733180970       -3.2823598287       -2.0902825227
 C         -1.3151919730        2.8433916415       -1.7045122349
 C          2.7490187308       -2.4689205018       -2.1991194065
 C          0.9152317156        2.9721764853       -2.6248249709
 C         -0.6637839696       -2.9288945034        1.9152752386
 C          2.5571149592       -0.8383144782        3.3875484179
 C         -4.2292143839       -0.8470372000       -0.8153988899
 C         -0.6924773513        2.8218193018        2.6076006438
 C         -1.3599834152       -2.0489991613       -3.2023012058
 C         -1.7532325716        1.4978937091        0.3288823388
 C          3.2686790873       -0.3819530572       -3.4350914382
 C          2.7866229804        1.7552519378       -1.5560668420
 C         -2.0514953889       -2.5156214557        1.7526391805
 C          2.2581884116        0.5247319769        2.9531735048
 C         -3.7987261653       -1.5154691949        0.4074302675
 C          0.6748076012        2.3210336014        2.5940059176
 C          0.0507904325       -2.2129477300       -2.8788500427
 C         -0.8641619128        1.9552201617       -0.7292833483
 C          2.3280972897       -1.4022763814       -2.9969351927
 C          1.3732576386        2.0942322492       -1.6410522392
 C         -4.2799147423       -2.3289030886        2.6076896343
 C          2.9784588074        2.6051777794        2.0067490382
 C          1.8155750544       -3.3894519098       -1.7688516972
 C         -0.4223513147        3.3147131307       -2.6483713196
 C          1.1078283373       -3.8744941251        3.1132037123
 C          1.7989041633       -2.9656579080        4.1627095316
 C         -3.6874870532        0.0960508696       -2.9436580967
 C         -3.1593726765       -0.8361596142       -4.0690805640
 C         -2.9838914685        2.5840442802        2.9584636548
 C         -3.5555339188        1.7384550643        1.7771399585
 C          5.2587612173        0.8111622337       -3.3202709428
 C          5.0171740278        1.8907314035       -2.2218797274
 Br        -5.5411910006       -2.6017766144        4.0228077132
 Br         4.3780210195        3.6965715907        1.2938800742
 Br         2.3924782990       -4.8538080578       -0.6806189334
 Br        -1.0568759028        4.4912968353       -4.0128008746
 N         -0.2553292266       -3.4730638950        2.9758481405
 N          1.6238888733       -1.6092517579        3.7415091784
 N         -3.3844080218       -0.5461824228       -1.7023706635
 N         -1.6352392749        2.1604965464        3.1292336849
 N         -1.7637285597       -1.0380125631       -3.8400317379
 N         -2.8273847238        2.1070255150        0.6043392599
 N          4.4457613958       -0.3117887341       -2.9774956340
 N          3.6510104699        2.2911207761       -2.3062934390
 H          3.1286572395       -5.7835036137        2.9341546649
 H          2.5351455341       -6.8288249992        4.2274649149
 H          4.2530748558       -5.2246850887        5.0688948134
 H          2.6871207356       -4.9548871943        5.8414331198
 H         -4.7008636745        2.0639602469       -4.5903522015
 H         -6.3346105568        1.4087768453       -4.7391504432
 H         -5.4237079341       -0.6917246992       -5.6887376609
 H         -4.8959075658        0.6958249070       -6.6456489858
 H         -5.4008319944        3.6631019332        3.7936696422
 H         -5.8147294018        2.3815381241        4.9378467774
 H         -6.8755754431        1.9955470667        2.7125133452
 H         -5.7404590515        0.7067272111        3.1271438911
 H          8.6718953616        1.3097126938       -3.5687716682
 H          7.4073759281        2.0492254891       -4.5558507517
 H          8.0117640958        3.5540988006       -2.6891566643
 H          7.6687671818        2.2745358908       -1.5221366003
 H          0.6710318813       -5.9544722157        2.8258210487
 H          0.5310578185       -5.4000543579        4.4979887124
 H          3.7126758813       -2.8035925820        5.1340164916
 H          3.7941336865       -3.3997567911        3.4639468659
 H         -5.7643392089       -0.4268381738       -3.1813723420
 H         -5.4848378203        1.1537243221       -2.4235103245
 H         -2.7148011957        0.7093109650       -5.4750413591
 H         -3.0069577733       -0.8704285007       -6.2069265117
 H         -3.6442951152        1.2614015699        4.5022178642
 H         -3.3865074724        2.9246563266        5.0332449056
 H         -5.1445536184        3.0868787559        1.3010342862
 H         -5.4149122044        1.4250552055        0.7722360867
 H          6.9733045348       -0.0544081528       -2.3801426957
 H          6.8815550822       -0.3326958832       -4.1215159747
 H          5.6407848942        3.5464194247       -3.4233044040
 H          5.7511040888        3.8267930152       -1.6824370697
 H         -1.7851548867       -1.7383182937       -0.2410201615
 H          0.1786529970        0.4173581607        3.4391277514
 H          0.6350014770       -0.4689121786       -3.9444406040
 H          0.8199501615        0.8744430837        0.0341416412
 H         -2.6277969114       -3.1768117917        3.7010397527
 H          4.2886566070        0.9506916046        2.3709741722
 H         -5.7452789002       -1.4360196011        1.3220684492
 H          1.4853265734        4.1138039205        1.7169696420
 H         -0.2368565967       -4.0130293961       -1.7317776982
 H         -2.3489549154        3.1495499777       -1.6955783605
 H          3.7923301211       -2.5502414149       -1.9393214166
 H          1.6189668802        3.3700900486       -3.3381508892
 H         -0.0052531494       -2.7372003896        1.0533687367
 H          3.6189495680       -1.1101098431        3.3730448630
 H         -5.3003431083       -0.6241551052       -0.8764597307
 H         -0.8551636699        3.7944085239        2.1191010122
 H         -2.0375919926       -2.8390496776       -2.8482585023
 H         -1.4086873334        0.6264453172        0.9010879322
 H          2.8784093640        0.3367597894       -4.1686363485
 H          3.0537228116        1.0302958197       -0.7712515029
 H          1.6634416253       -3.7770054998        2.1622970658
 H          1.2161959064       -3.0506515609        5.0889078380
 H         -3.0588290590        0.9955206936       -2.9602168920
 H         -3.7284398246       -1.7824395382       -4.0090631685
 H         -3.0557617951        3.6475739445        2.6699703404
 H         -3.3969639669        0.6803682762        2.0412513123
 H          4.9612580122        1.2563851410       -4.2844351252
 H          5.2484817315        1.4236956326       -1.2493658388