128
JYKSSIDNHAGOTC-XTVBVBRTSA-N (       -190.33929648)
 C          3.1244447001       -5.9200279336        3.3203575927
 C          3.8395882811       -5.1116047638        4.3971289505
 C         -5.4047318736        1.2908147042       -4.1477641103
 C         -5.0365133434        0.3504922759       -5.2904957199
 C         -5.7840764387        3.2865620545        3.4972087561
 C         -6.2817318068        2.4678549832        2.3112021543
 C          7.5598856250        1.5166937574       -3.3452561037
 C          7.3017181366        2.5199733655       -2.2260142828
 C          1.6912640231       -5.4309368403        3.1565351767
 C          3.8226989984       -3.6306386184        4.0391513272
 C         -5.1485999357        0.6179479935       -2.8029459763
 C         -3.5746248140       -0.0669889358       -5.1838645878
 C         -4.3652284280        2.8710122062        3.8665010575
 C         -5.3495488504        2.6444923190        1.1184956562
 C          6.6391163302        0.3112423215       -3.1968715831
 C          5.8437327895        2.9619980162       -2.2357310925
 C         -2.1227113979       -1.8142875647        0.6823850185
 C          0.2913641225        1.1211770254        3.2547597550
 C          0.8804203261       -1.3236825330       -3.3376858210
 C          0.2795526259        1.7238938929       -0.7481444645
 C         -2.4059200457       -2.6922115958        2.9065159171
 C          2.6356240055        1.0129968046        2.7209346207
 C         -4.2680395210       -1.6590641097        1.7664594199
 C          1.3637193954        3.0038027216        2.2028779115
 C          0.3692059676       -3.4098798648       -2.2494019772
 C         -1.3681532308        3.1003767147       -1.8397870978
 C          2.6538704499       -2.6232450271       -2.3543389024
 C          0.8966527034        3.0332781567       -2.6735453405
 C         -0.1993936620       -2.8899096242        1.8056136481
 C          1.5219482876       -0.9517201244        3.7529628486
 C         -4.0151409347       -0.7377930639       -0.5096820707
 C         -1.0771101706        3.0640865217        2.5885394353
 C         -1.4755634752       -2.0466500303       -3.1696225720
 C         -2.0018449076        1.8427130866        0.1904077481
 C          3.1737859567       -0.4445892878       -3.4221180410
 C          2.6358192080        1.7237726151       -1.5046857155
 C         -1.5913481685       -2.4564299135        1.7949008973
 C          1.4876486355        0.4155205738        3.2469352675
 C         -3.4592012966       -1.4158057569        0.6581730208
 C          0.2134468327        2.4020796278        2.7105901810
 C         -0.0572972813       -2.2694171406       -2.9287249887
 C         -1.0225614322        2.2112604518       -0.8224950292
 C          2.2287611087       -1.4869173285       -3.0470303118
 C          1.2508766182        2.1543568195       -1.6483330220
 C         -3.7234716044       -2.2853135922        2.8743436525
 C          2.5557948558        2.3009346214        2.2290635920
 C          1.7181975638       -3.5666552643       -1.9811220603
 C         -0.4084763899        3.4750719879       -2.7604050961
 C          1.6479856448       -3.9441585233        2.7940951574
 C          2.3942546339       -3.1153467197        3.8720833541
 C         -3.6789238191        0.2171881204       -2.6774572121
 C         -3.2849697988       -0.7353859546       -3.8400819800
 C         -3.4097827223        3.0490734231        2.6880759083
 C         -3.9209865746        2.2299268780        1.4609570077
 C          5.1714392569        0.7310350239       -3.2122704021
 C          4.9020182332        1.7682471860       -2.0823844634
 Br        -4.8371588481       -2.5909671178        4.4014747860
 Br         4.1328200172        3.1370272175        1.5469326917
 Br         2.2968960923       -5.1354837599       -1.0505381515
 Br        -0.9034175326        4.6501105465       -4.1834474705
 N          0.2843023470       -3.5218849577        2.7848248221
 N          2.4390454107       -1.7545717356        3.4253606930
 N         -3.2598592165       -0.4162040635       -1.4668098757
 N         -2.1329344172        2.5086235319        3.0087931121
 N         -1.8844854437       -0.9904477246       -3.7255348601
 N         -3.0566138607        2.5206598215        0.3610431242
 N          4.3404262985       -0.3983551654       -2.9383351676
 N          3.5544180006        2.2147618872       -2.2196090370
 H          3.6521729385       -5.8160184644        2.3702431597
 H          3.1158410466       -6.9780190325        3.5870778579
 H          4.8720661660       -5.4502699037        4.4968124028
 H          3.3409161649       -5.2607783733        5.3576220998
 H         -4.8063141638        2.2012812686       -4.2186205383
 H         -6.4570849097        1.5724990471       -4.2197356242
 H         -5.6734186533       -0.5369411878       -5.2533818045
 H         -5.2044388494        0.8444288072       -6.2487253909
 H         -5.7977507510        4.3478957206        3.2395165739
 H         -6.4405346265        3.1386903963        4.3561838894
 H         -7.2899275862        2.7815462207        2.0352259798
 H         -6.3209421926        1.4132401137        2.5928578381
 H          8.5995105700        1.1857479952       -3.3200954754
 H          7.3812816444        1.9945421800       -4.3112577501
 H          7.9453398811        3.3925968148       -2.3480621743
 H          7.5339887759        2.0620294774       -1.2622197951
 H          1.1881602822       -5.9930240938        2.3674961841
 H          1.1340031822       -5.5731057412        4.0840744716
 H          4.3152820667       -3.0433686075        4.8167215280
 H          4.3567057151       -3.4650056795        3.1020790365
 H         -5.7787690674       -0.2715362806       -2.7152281636
 H         -5.3985669224        1.3036199041       -1.9895974422
 H         -2.9258227284        0.8051228280       -5.2771008405
 H         -3.3182087211       -0.7648488833       -5.9835451517
 H         -4.3446838222        1.8226398426        4.1693763103
 H         -3.9981539587        3.4691880401        4.7029314597
 H         -5.3363302703        3.6880057043        0.7997769620
 H         -5.6917358124        2.0418220864        0.2749474273
 H          6.8388598215       -0.2015667002       -2.2546445816
 H          6.8059392633       -0.3989083404       -4.0094083815
 H          5.6069432380        3.4674228336       -3.1732936277
 H          5.6519326487        3.6574929146       -1.4165870987
 H         -1.5170473819       -1.6150325988       -0.1890045271
 H         -0.6092879202        0.6810078735        3.6529499809
 H          0.5268417866       -0.4517494833       -3.8641901495
 H          0.5451876758        1.0318555822        0.0384313553
 H         -1.9847602741       -3.1913752925        3.7641020015
 H          3.5601463796        0.4580893599        2.7144198781
 H         -5.3049841377       -1.3584567543        1.7623520988
 H          1.3224299874        3.9996635689        1.7880850775
 H         -0.3433302864       -4.1567955996       -1.9316272751
 H         -2.3760584029        3.4810139679       -1.8812305176
 H          3.7017026680       -2.7387518344       -2.1281276208
 H          1.6550701850        3.3539061609       -3.3694514964
 H          0.3880688029       -2.6439254920        0.9076539284
 H          0.6870136083       -1.2386722583        4.4069724761
 H         -5.0909281798       -0.5338323546       -0.4680834369
 H         -1.0822734780        4.0375516827        2.0775598485
 H         -2.1585433540       -2.8332586925       -2.8159407635
 H         -1.7508891969        0.9687778821        0.8059033812
 H          2.7941141711        0.3095901650       -4.1250717695
 H          2.8293291234        0.9819604067       -0.7151692964
 H          2.1441776886       -3.7695409323        1.8242478586
 H          1.8258276255       -3.2174238875        4.8112729624
 H         -3.0412499675        1.1056668708       -2.7678332814
 H         -3.8823048374       -1.6602007627       -3.7291369049
 H         -3.3541594156        4.1078958736        2.3808058189
 H         -3.8737869508        1.1665684293        1.7477055383
 H          4.9094764986        1.2147290255       -4.1681523041
 H          5.0721248969        1.2586086796       -1.1191613631