128
JYKSSIDNHAGOTC-XTVBVBRTSA-N (       -190.34072215)
 C          4.5552563605       -4.6266884290        2.9057038842
 C          4.8509773840       -3.7844557689        4.1423969319
 C         -5.1744323738        2.0727996141       -3.7890537014
 C         -5.0349932381        1.2176710114       -5.0438986847
 C         -5.9676144844        3.5014608748        3.8078578608
 C         -6.4266516800        2.6371716542        2.6376136411
 C          7.4208546828        0.1810211917       -2.4275994493
 C          7.2561707851        1.2142427310       -1.3180966375
 C          3.0907394505       -4.4721727598        2.5122343542
 C          4.5150578278       -2.3209600516        3.8815549774
 C         -5.0232908028        1.2137749276       -2.5391826043
 C         -3.6862457514        0.5079367054       -5.0522079165
 C         -4.5308428017        3.1637580456        4.1907416784
 C         -5.4967669292        2.8125799577        1.4417938053
 C          6.3017080401       -0.8512237851       -2.3575508341
 C          5.8966273554        1.8936473110       -1.4258831713
 C         -1.0615448597       -2.0278392117        0.5840079247
 C          0.3439863889        1.8003994882        3.3247857976
 C          0.4413220171       -1.6571467866       -3.1441412550
 C          0.1782647270        1.6752740436       -0.1731717079
 C         -1.9977050855       -3.7224273285        2.0146866321
 C          2.6319776353        2.0061674018        2.5993762031
 C         -3.4461602943       -2.3726264875        0.6303455492
 C          1.0949570220        3.8422100095        2.2900780552
 C         -0.4719115280       -3.6673030509       -2.1857681024
 C         -1.2192088401        3.2645364697       -1.3223392272
 C          1.8832119700       -3.1702339484       -1.9489019411
 C          1.0617762016        2.9051278814       -2.0429330654
 C          0.4446732064       -3.4056318682        2.0076581528
 C          1.8533921006       -0.1398856944        3.5504320542
 C         -2.4928455144       -0.6787233365       -0.9029165842
 C         -1.2907272694        3.5953719289        2.8337954114
 C         -1.9978383872       -2.0412785953       -3.2394656019
 C         -2.1112722417        2.0336907898        0.6415882299
 C          2.8143959198       -1.0704187846       -2.8963312867
 C          2.5242368417        1.3083230943       -0.8264974117
 C         -0.8841862400       -3.0391930312        1.5264373856
 C          1.6101449907        1.2473157447        3.1752103014
 C         -2.3328433709       -1.6953424432        0.1269224193
 C          0.0714220849        3.0865748084        2.8608056365
 C         -0.6549255326       -2.4783942508       -2.8892272270
 C         -1.0477588125        2.3233984102       -0.3078167682
 C          1.7050137850       -1.9870735745       -2.6704805535
 C          1.2403674834        1.9689852906       -1.0226451309
 C         -3.2583433499       -3.3704692432        1.5649221611
 C          2.3595912233        3.2925694928        2.1816217022
 C          0.7950863413       -3.9902282249       -1.7341558496
 C         -0.1649765893        3.5267313374       -2.1779979008
 C          2.7819353489       -3.0085548602        2.1847935590
 C          3.0587292009       -2.1421059999        3.4418268187
 C         -3.6821660721        0.4873951242       -2.5236131523
 C         -3.5198854291       -0.3762092983       -3.8194604126
 C         -3.5927270233        3.3658138411        3.0042108283
 C         -4.0592851921        2.4646457205        1.8136940060
 C          4.9289452030       -0.1895240128       -2.4665635893
 C          4.7592680722        0.8735667406       -1.3474960854
 Br        -4.7820832883       -4.3037673560        2.2521868209
 Br         3.7547063293        4.3320455411        1.3953886718
 Br         1.0249076786       -5.6155768146       -0.7647471577
 Br        -0.4164401537        4.7921941617       -3.5884570091
 N          1.4581864317       -2.7132274905        1.7102494464
 N          2.8562729732       -0.7668728316        3.1134842078
 N         -3.6190770181       -0.4068807850       -1.4142851772
 N         -2.2663638759        2.9499607610        3.3179093826
 N         -2.2001935030       -0.9023682445       -3.7541433761
 N         -3.1732583861        2.7170677979        0.7210279814
 N          3.9112689303       -1.1789203052       -2.2803232392
 N          3.5188825355        1.5474366498       -1.5663575348
 H          5.1927357991       -4.3050596774        2.0797511807
 H          4.7695004581       -5.6776088642        3.1079601965
 H          5.9043684371       -3.8705220441        4.4139757678
 H          4.2571280321       -4.1514694916        4.9832202330
 H         -4.4060682917        2.8486095201       -3.7928410190
 H         -6.1489205100        2.5635490755       -3.7760107390
 H         -5.8368094038        0.4762766346       -5.0723948148
 H         -5.1211672449        1.8429277028       -5.9339436955
 H         -6.0295005202        4.5556433636        3.5283351313
 H         -6.6201283030        3.3422004583        4.6679299134
 H         -7.4436041381        2.9085176305        2.3497725514
 H         -6.4309319302        1.5876127143        2.9406085217
 H          8.3854627996       -0.3208327611       -2.3336524770
 H          7.3944171118        0.6815620964       -3.3981152614
 H          8.0428206506        1.9674177867       -1.3858849587
 H          7.3421862173        0.7232408189       -0.3462354868
 H          2.8587968709       -5.0892081314        1.6421428357
 H          2.4676456375       -4.8085196074        3.3438627292
 H          4.6806889648       -1.7263205656        4.7826691565
 H          5.1557287770       -1.9230875973        3.0932167404
 H         -5.8198590793        0.4693283859       -2.4913698217
 H         -5.0807842940        1.8342672432       -1.6430631394
 H         -2.8752811469        1.2381206751       -5.0635554651
 H         -3.5894261357       -0.1174198029       -5.9420759797
 H         -4.4586898242        2.1253243034        4.5182921493
 H         -4.1957670511        3.8006196979        5.0120575706
 H         -5.5243258486        3.8435175596        1.0852503031
 H         -5.8097322275        2.1614914556        0.6234797815
 H          6.3464627188       -1.3920789429       -1.4108040587
 H          6.4020748931       -1.5787282481       -3.1656105878
 H          5.8144036506        2.4252696436       -2.3751952808
 H          5.7682030330        2.6220286881       -0.6231559233
 H         -0.1883059979       -1.5197680328        0.2047515189
 H         -0.4622113164        1.2322686548        3.7626026171
 H          0.2760485253       -0.7441728805       -3.6946128281
 H          0.3119327901        0.9461514460        0.6131503846
 H         -1.8776926902       -4.5159384247        2.7367592802
 H          3.6107016566        1.5684083643        2.4892666741
 H         -4.4263857849       -2.1036688920        0.2709159526
 H          0.8983372173        4.8398765315        1.9273487715
 H         -1.3096991348       -4.3188210357       -1.9867404417
 H         -2.1689103646        3.7661637932       -1.4165565929
 H          2.8642946492       -3.4155425313       -1.5766336222
 H          1.8882161444        3.1271818532       -2.6987434276
 H          0.4736565916       -4.3064385409        2.6299592690
 H          1.0939047123       -0.6059875155        4.1958777763
 H         -1.5690005534       -0.1719418985       -1.2125635904
 H         -1.4305818996        4.5502212465        2.3056394866
 H         -2.8177568476       -2.7260095745       -2.9783031510
 H         -1.9150216855        1.1850303352        1.3138952568
 H          2.6220253599       -0.2652801032       -3.6193778194
 H          2.5714928891        0.6076618208        0.0199281969
 H          3.4530140444       -2.6553250609        1.3925426783
 H          2.3673960661       -2.4778406393        4.2387120529
 H         -2.8469593228        1.2070582607       -2.5154404317
 H         -4.2916698899       -1.1646572144       -3.7895686307
 H         -3.6257902055        4.4130041241        2.6556331312
 H         -3.9878177787        1.4190343614        2.1580439056
 H          4.8201778340        0.3328231735       -3.4318404579
 H          4.7731216090        0.3449103998       -0.3786244377