  64
        -95.15756652
 C          6.4123191165       -1.0529077708        3.0739665467
 C          6.2130899637       -2.4518397755        2.4961902990
 C         -6.2105448057        2.4481747421        2.4999201108
 C         -6.4128641955        1.0488648677        3.0757289929
 C          5.7171172507       -0.0049085077        2.2097890629
 C          4.7292033402       -2.7709607974        2.3399076198
 C         -4.7259326307        2.7647038407        2.3456209452
 C         -5.7177817455        0.0003670967        2.2118959086
 C          0.1615473885        1.7919348484        0.9270904936
 C         -0.1619645857       -1.7981337059        0.9269773499
 C          2.0390672075        2.3508104280       -0.4723704845
 C          0.1975782038       -3.0023704315       -1.1242342749
 C         -0.1981222653        3.0044485937       -1.1191771320
 C         -2.0393821238       -2.3505280135       -0.4752859827
 C          2.3802550171        0.9571921382        1.5563555118
 C          2.1511196505       -2.3048453897        0.2230370141
 C         -2.1514000612        2.3014668137        0.2263344775
 C         -2.3806874298       -0.9636248609        1.5577071045
 C          1.5273704790        1.7374485960        0.6728190305
 C          0.7106792226       -2.3984713127        0.0229047881
 C         -0.7111431616        2.3956398019        0.0253559216
 C         -1.5277485071       -1.7418970059        0.6724533027
 C          1.1692211995        2.9894497834       -1.3331007652
 C         -1.1696845416       -2.9859958864       -1.3385196591
 C          4.2310545928       -0.3281834156        2.0882842778
 C          4.0573104202       -1.7270503248        1.4449151144
 C         -4.0560199890        1.7208613124        1.4491190376
 C         -4.2311830152        0.3217235480        2.0913807758
 Br         1.8683432126        3.8483012591       -2.8962499834
 Br        -1.8689129866       -3.8378686117       -2.9052873647
 N          3.5545881742        0.6117734274        1.2444854219
 N          2.6511876774       -1.9668865095        1.3315024592
 N         -2.6498603938        1.9596028072        1.3343039456
 N         -3.5552568029       -0.6180125368        1.2467866653
 H          6.0005786665       -1.0165130292        4.0852401944
 H          7.4780722461       -0.8265621592        3.1369175423
 H          6.6993422272       -2.5133240689        1.5198985224
 H          6.6763156254       -3.1932512874        3.1497924128
 H         -6.6956110263        2.5118907687        1.5231688717
 H         -6.6732038466        3.1894949955        3.1540250897
 H         -6.0031173326        1.0108074167        4.0877483347
 H         -7.4791060419        0.8241487174        3.1364140893
 H          6.1549874145        0.0180249433        1.2106130510
 H          5.8306081000        0.9875872008        2.6501458843
 H          4.5977095358       -3.7586575924        1.8922270093
 H          4.2343569422       -2.7723481990        3.3125740061
 H         -4.5918418920        3.7529504576        1.8999577632
 H         -4.2318668725        2.7630917332        3.3186801918
 H         -6.1548687011       -0.0219638266        1.2123535153
 H         -5.8329217203       -0.9920014308        2.6521251435
 H         -0.2570938978        1.3315929011        1.8071504853
 H          0.2566561425       -1.3414832686        1.8089877568
 H          3.0987824354        2.3048563317       -0.6646061124
 H          0.8570815564       -3.4767986744       -1.8351732269
 H         -0.8575664501        3.4816918166       -1.8282800413
 H         -3.0989862145       -2.3029315943       -0.6678168796
 H          1.9077614330        0.6261264820        2.4918862142
 H          2.7701719436       -2.4963921033       -0.6660920012
 H         -2.7715333224        2.4966333654       -0.6612034314
 H         -1.9080459237       -0.6338337898        2.4936214291
 H          3.7662782937       -0.3714894476        3.0887640718
 H          4.5459588515       -1.7231768423        0.4546629562
 H         -4.5456644773        1.7186044620        0.4593717271
 H         -3.7666988240        0.3636008555        3.0920340222
