  22
        -25.84252548
 C          1.9203667520        0.7023258448        0.2940706798
 C          1.9239529067       -0.7088824669       -0.2866307057
 C          0.6662099462        1.4538064754       -0.1405261248
 C          0.6683223081       -1.4626212729        0.1402766891
 C         -0.5996257874        0.7122995095        0.2894337001
 C         -0.5996087970       -0.7150243597       -0.2958400103
 N         -1.7746321903        1.4874636281       -0.0828099711
 N         -1.8395553521       -1.3806995466        0.0921957044
 H          1.9504796234        0.6467668596        1.3846333589
 H          2.8080337051        1.2435962883       -0.0390246229
 H          2.8110622077       -1.2502730051        0.0494677834
 H          1.9583467102       -0.6530623311       -1.3773544297
 H          0.6609780310        1.5602311844       -1.2283146094
 H          0.6486088498        2.4544442862        0.2933299873
 H          0.6585295780       -1.5685006456        1.2293683116
 H          0.6674000819       -2.4666111246       -0.2948708630
 H         -0.6154589397        0.6330587185        1.3848383141
 H         -0.6148388366       -0.6420492507       -1.3919476790
 H         -1.7829961818        1.6235650550       -1.0901574291
 H         -2.6049615315        0.9484535764        0.1452780135
 H         -1.8685460404       -1.4847662315        1.1029589929
 H         -1.8751123879       -2.3128940240       -0.3079833979
