  22
        -25.84252548
 C          1.9203667520        0.7023258448        0.2940706798
 C          1.9239529067       -0.7088824669       -0.2866307057
 C          0.6662099462        1.4538064754       -0.1405261248
 C          0.6683223081       -1.4626212729        0.1402766891
 C         -0.5996257874        0.7122995095        0.2894337001
 C         -0.5996087970       -0.7150243597       -0.2958400103
 N         -1.7746321903        1.4874636281       -0.0828099711
 N         -1.8395553521       -1.3806995466        0.0921957044
 H          1.9504796234        0.6467668596        1.3846333589
 H          2.8080337051        1.2435962883       -0.0390246229
 H          2.8110622077       -1.2502730051        0.0494677834
 H          1.9583467102       -0.6530623311       -1.3773544297
 H          0.6609780310        1.5602311844       -1.2283146094
 H          0.6486088498        2.4544442862        0.2933299873
 H          0.6585295780       -1.5685006456        1.2293683116
 H          0.6674000819       -2.4666111246       -0.2948708630
 H         -0.6154589397        0.6330587185        1.3848383141
 H         -0.6148388366       -0.6420492507       -1.3919476790
 H         -1.7829961818        1.6235650550       -1.0901574291
 H         -2.6049615315        0.9484535764        0.1452780135
 H         -1.8685460404       -1.4847662315        1.1029589929
 H         -1.8751123879       -2.3128940240       -0.3079833979
  22
        -25.84036149
 C          1.9253261079        0.6841088255        0.2888605223
 C          1.9090628350       -0.7289143655       -0.2868853684
 C          0.6788171608        1.4476248613       -0.1449476949
 C          0.6447411454       -1.4630631383        0.1460249933
 C         -0.5960685300        0.7247193240        0.2917242020
 C         -0.6123192003       -0.7106675935       -0.2924171074
 N         -1.7477726912        1.5359102461       -0.0854996438
 N         -1.7831573687       -1.4946773973        0.0834193104
 H          1.9583779715        0.6324219667        1.3795299861
 H          2.8171066670        1.2156072459       -0.0490456059
 H          2.7879351452       -1.2811198680        0.0516039194
 H          1.9440109267       -0.6779873842       -1.3775321551
 H          0.6706113892        1.5474548325       -1.2333839510
 H          0.6745770467        2.4516460703        0.2822903162
 H          0.6330572542       -1.5619935437        1.2345204349
 H          0.6176807438       -2.4669853895       -0.2806272787
 H         -0.6120601146        0.6529995259        1.3880399235
 H         -0.6251709777       -0.6387036095       -1.3887431776
 H         -1.7883267472        1.6298188060       -1.0960713879
 H         -2.6115991847        1.0971627834        0.2179466341
 H         -2.6361578498       -1.0360808811       -0.2217544938
 H         -1.8273448899       -1.5867854446        1.0940186708
  22
        -25.83976178
 C          1.9287776449        0.6553887169        0.3416708289
 C          1.9122050811       -0.7299787184       -0.2957648445
 C          0.6978759660        1.4459817193       -0.0879926359
 C          0.6395877550       -1.4738806833        0.0929387282
 C         -0.5976808407        0.7148590273        0.2900139459
 C         -0.6146227727       -0.6961535897       -0.3147146918
 N         -1.8037147922        1.4206675678       -0.1362938625
 N         -1.7901176482       -1.3990250516        0.1850453361
 H          1.9322097614        0.5543766133        1.4290187297
 H          2.8335128327        1.1930183912        0.0490270554
 H          2.7851037565       -1.3007131228        0.0268595631
 H          1.9597186562       -0.6304779969       -1.3833081465
 H          0.7184173095        1.5888582678       -1.1732936637
 H          0.7037762101        2.4344580034        0.3800903523
 H          0.6076797250       -1.6224122883        1.1733409694
 H          0.6170177539       -2.4580229668       -0.3797489182
 H         -0.6605499525        0.6119365333        1.3789169415
 H         -0.6258967729       -0.5889910043       -1.4176045429
 H         -1.8573704027        2.3239035654        0.3228124289
 H         -1.7633344667        1.5926932439       -1.1375162182
 H         -1.9787032834       -2.2208538638       -0.3793085131
 H         -2.5923557398       -0.7801012616        0.1215772431
  22
        -25.83856677
 C          1.9341177742        0.6700870107        0.2748416170
 C          1.9001046150       -0.7332865925       -0.3215920278
 C          0.6836823497        1.4468192978       -0.1226279907
 C          0.6386958262       -1.4643146152        0.1231426796
 C         -0.5885124549        0.7217837802        0.3176406711
 C         -0.6204193722       -0.6985744779       -0.2882998339
 N         -1.7472713380        1.4781894432       -0.1514315216
 N         -1.7880141407       -1.4860588397        0.0839737094
 H          1.9878022598        0.6005458100        1.3644163829
 H          2.8215602679        1.2040116210       -0.0706545691
 H          2.7822492480       -1.2944275255       -0.0069093654
 H          1.9138046607       -0.6650587354       -1.4112282414
 H          0.6473907232        1.5690062175       -1.2065951053
 H          0.7045227081        2.4435447420        0.3264685931
 H          0.6434041156       -1.5789468680        1.2103606564
 H          0.5960678041       -2.4613664573       -0.3165614421
 H         -0.5767795447        0.6224547932        1.4223968437
 H         -0.6461046974       -0.5970052038       -1.3785830377
 H         -2.6043042791        1.0980936982        0.2382299022
 H         -1.6803166653        2.4430228980        0.1558893727
 H         -2.6313806768       -1.0603273224       -0.2839939403
 H         -1.8721594978       -1.5291397115        1.0955533126
  22
        -25.83784371
 C          1.9350388957        0.6866638562        0.2819494703
 C          1.9193478139       -0.7313967665       -0.2792121738
 C          0.6851380494        1.4427410942       -0.1561633366
 C          0.6511564610       -1.4585412420        0.1554022856
 C         -0.5951209063        0.7165703316        0.2923068969
 C         -0.6116144072       -0.7024625027       -0.2933479436
 N         -1.8176588433        1.4193451720       -0.0647990265
 N         -1.8502294303       -1.3765154961        0.0638773512
 H          1.9682036592        0.6456284546        1.3733652951
 H          2.8272591545        1.2150355451       -0.0611121629
 H          2.7980721009       -1.2803762586        0.0663447143
 H          1.9566328526       -0.6910828189       -1.3705134373
 H          0.6761007236        1.5366918356       -1.2459875802
 H          0.6919814072        2.4508645865        0.2678555265
 H          0.6381859367       -1.5545293586        1.2450398994
 H          0.6353079772       -2.4657518821       -0.2706318183
 H         -0.5912908170        0.6404811669        1.3887236806
 H         -0.6060414688       -0.6264983844       -1.3897553568
 H         -1.7573029365        2.3894958708        0.2276537731
 H         -1.9480806660        1.4043771400       -1.0705201071
 H         -1.9801206357       -1.3584301665        1.0697673519
 H         -1.8126909970       -2.3478632606       -0.2285659649
  22
        -25.83747902
 C          1.9240902323        0.6721561375        0.3170549170
 C          1.9091387254       -0.7164244095       -0.3120576786
 C          0.6780678276        1.4486424835       -0.0924726249
 C          0.6438455327       -1.4645163073        0.0914820043
 C         -0.5983839911        0.7096564825        0.3120336727
 C         -0.6144987969       -0.6954703879       -0.3138928671
 N         -1.7529736501        1.4700137878       -0.1650821260
 N         -1.7865765173       -1.4287570469        0.1630322678
 H          1.9509608065        0.5770162152        1.4051061129
 H          2.8168747675        1.2171067246        0.0039022931
 H          2.7875662422       -1.2819682210        0.0053528637
 H          1.9436537931       -0.6219562130       -1.4000105126
 H          0.6637792418        1.5902616073       -1.1750334534
 H          0.6831151623        2.4367685708        0.3741931340
 H          0.6232109386       -1.6090578890        1.1735598358
 H          0.6271754822       -2.4511718498       -0.3781566480
 H         -0.6104488116        0.5824306871        1.4092918987
 H         -0.6232369065       -0.5681337493       -1.4111755770
 H         -2.6042060558        1.0876157503        0.2335018715
 H         -1.6815115223        2.4306927760        0.1561738101
 H         -1.7387408001       -2.3902154186       -0.1599901155
 H         -2.6287091402       -1.0250792975       -0.2338193462
  22
        -25.83741501
 C          1.6677125063        0.7332592330        0.1445468402
 C          1.6534852442       -0.7687540878       -0.1233370251
 C          0.4123816697        1.1572383863        0.9032050604
 C          0.3992128917       -1.1652653522       -0.8983529945
 C         -0.8753285249        0.7662763879        0.1692598852
 C         -0.8890976082       -0.7477025241       -0.1804384050
 N         -1.0675138848        1.6391049009       -0.9819251689
 N         -1.1134711250       -1.6161555121        0.9682247551
 H          2.5500455510        0.9994205288        0.7306864418
 H          1.7278257029        1.2746372113       -0.8019348977
 H          1.6897756982       -1.3114173239        0.8236052457
 H          2.5375481974       -1.0537362378       -0.6980677318
 H          0.4082396804        2.2391407929        1.0447477588
 H          0.4134110215        0.6894873607        1.8906301189
 H          0.3738845368       -2.2466589352       -1.0415350826
 H          0.4228442238       -0.6964784496       -1.8850242337
 H         -1.7271070421        0.9631340890        0.8382051108
 H         -1.7365812888       -0.9269189759       -0.8597862182
 H         -0.3095432068        1.5124533851       -1.6440859206
 H         -1.9296376808        1.3989119882       -1.4608526963
 H         -1.9751181708       -1.3567055066        1.4378745074
 H         -0.3601059617       -1.5068943883        1.6385681918
  22
        -25.83720296
 C          1.6635192539        0.7438490056        0.1617329652
 C          1.6642435995       -0.7578295014       -0.1075158974
 C          0.3956116958        1.1571106606        0.9056874471
 C          0.4291825772       -1.1504770266       -0.9136201455
 C         -0.8845343169        0.7473081011        0.1681351255
 C         -0.8753310837       -0.7568842324       -0.1964645379
 N         -1.0895332486        1.6278434214       -0.9736878477
 N         -1.1636210270       -1.5385351554        0.9986055291
 H          2.5373647386        1.0156346609        0.7579031410
 H          1.7306546701        1.2844081601       -0.7847214609
 H          1.6764538116       -1.2991179929        0.8423172284
 H          2.5647946674       -1.0409559938       -0.6575967711
 H          0.3766725063        2.2400457105        1.0348663426
 H          0.3918910792        0.7005785845        1.8972324703
 H          0.4246347682       -2.2296600815       -1.0949757210
 H          0.4627280762       -0.6572187340       -1.8884146552
 H         -1.7368471277        0.9082050435        0.8399608811
 H         -1.7148965520       -0.9424952511       -0.8836733984
 H         -0.3430931001        1.5042443654       -1.6495651654
 H         -1.9615616726        1.3984474227       -1.4387633823
 H         -0.4386836764       -1.3933742008        1.6930149471
 H         -1.1715848814       -2.5281821315        0.7721700067
  22
        -25.83693042
 C          1.6605986212        0.7087432475        0.1690778977
 C          1.6268035899       -0.7856581827       -0.1310264848
 C          0.4077026530        1.1101697271        0.9416944005
 C          0.3818835166       -1.1356611594       -0.9398881191
 C         -0.8774683075        0.7669416928        0.1711193982
 C         -0.8962511131       -0.7266577120       -0.2011545811
 N         -1.1098665091        1.5677677146       -1.0246090886
 N         -1.0142195666       -1.5147078236        1.0220566792
 H          2.5464465123        0.9523072401        0.7596257975
 H          1.7251445563        1.2717573613       -0.7666243538
 H          1.6023495568       -1.3383890444        0.8089610611
 H          2.5213040929       -1.0807911780       -0.6841421080
 H          0.4224100586        2.1820563923        1.1593889338
 H          0.3847004808        0.5678745492        1.8874969953
 H          0.3520739337       -2.2113337543       -1.1291909459
 H          0.4093308699       -0.6320223592       -1.9082545904
 H         -1.7349201270        0.9588194941        0.8312849614
 H         -1.7548215340       -0.8788093846       -0.8823331462
 H         -1.1301374801        2.5517076818       -0.7753122387
 H         -0.3456004247        1.4418290031       -1.6800427572
 H         -1.0532155707       -2.5024237301        0.7914879175
 H         -1.8745490429       -1.2796474436        1.5060716275
  22
        -25.83673331
 C          1.6488768081        0.7192799095        0.1853181559
 C          1.6277780474       -0.7760326617       -0.1129251061
 C          0.3782880677        1.1276307155        0.9259209905
 C          0.3960838144       -1.1345859463       -0.9378762200
 C         -0.8916154150        0.7596263891        0.1544862861
 C         -0.8883728911       -0.7464500100       -0.1996687829
 N         -1.0588810387        1.6389508858       -0.9933272571
 N         -0.9883919560       -1.5222744445        1.0298357449
 H          2.5171670691        0.9628585210        0.8007444852
 H          1.7392120542        1.2828256163       -0.7464399646
 H          1.5922669739       -1.3290738098        0.8264061440
 H          2.5309034114       -1.0671447897       -0.6538333799
 H          0.3741623464        2.2038153489        1.1038989173
 H          0.3469948786        0.6109760105        1.8854684212
 H          0.3810687989       -2.2083090365       -1.1416617409
 H          0.4278007862       -0.6174913308       -1.9002755168
 H         -1.7571196557        0.9476800052        0.8057664879
 H         -1.7494571072       -0.9342470103       -0.8774463449
 H         -0.2664291638        1.5491325773       -1.6199294692
 H         -1.8899985048        1.3799047231       -1.5155998668
 H         -1.0189605023       -2.5140073769        0.8160434413
 H         -1.8404737181       -1.2861840726        1.5277075509
  22
        -25.83605745
 C          1.6275358982        0.7278788755        0.1731894575
 C          1.6143193851       -0.7614919682       -0.1495830554
 C          0.3764985849        1.0968101448        0.9624599019
 C          0.3676356722       -1.1038676926       -0.9576555070
 C         -0.8899647007        0.7568375432        0.1747991731
 C         -0.9024913893       -0.7386399183       -0.1876084817
 N         -0.9404870544        1.5457320585       -1.0504831183
 N         -0.9857512505       -1.5259495513        1.0367508877
 H          2.5162611081        0.9801875701        0.7550892643
 H          1.6461292327        1.3007159396       -0.7551567592
 H          1.6067078494       -1.3343939698        0.7789024289
 H          2.5062161425       -1.0325845006       -0.7179630544
 H          0.3790471637        2.1633823434        1.1994739063
 H          0.3536156780        0.5331123433        1.8956576331
 H          0.3518177671       -2.1699457106       -1.1965189042
 H          0.3698358591       -0.5385020908       -1.8901553968
 H         -1.7657368810        0.9526969356        0.8274013654
 H         -1.7730227205       -0.9167409198       -0.8522842761
 H         -1.7996764589        1.3569410959       -1.5566465072
 H         -0.9270994104        2.5346029280       -0.8233484387
 H         -0.9865548884       -2.5152848240        0.8099594643
 H         -1.8487957313       -1.3212952401        1.5305042034
